# --------------------------------------------------------------------------------
# ------------------------------------ MRF12S ------------------------------------
# -------------------- Generated by: MRFHelper (Version 2.1) ---------------------
# ------------------ (https://github.com/WenchenLie/MRFModeler) ------------------
# --------------------------------------------------------------------------------


wipe all;
model basic -ndm 2 -ndf 3;

# Basic model variables
set maxRunTime 600.0;  # $$$
set analysis_type "TH";  # $$$
set ShowAnimation 1;  # $$$
set MPCO 0;  # $$$

# Ground motion information
set MainFolder "H:/MRF_results/test/4SMRF";  # $$$
set GMname "th5";  # $$$
set SubFolder "th5";  # $$$
set GMdt 0.01;  # $$$
set GMpoints 5590;  # $$$
set GMduration 55.89;  # $$$
set FVduration 30;  # $$$
set EqSF 2.0;  # $$$
set GMFile "F:/MRF/GMs/$GMname.th";  # $$$
set subroutines "F:/MRF/subroutines";  # $$$
set temp "F:/MRF/temp";  # $$$

# Sourcing subroutines
cd $subroutines;
source DisplayModel3D.tcl;
source DisplayPlane.tcl;
source Spring_Zero.tcl;
source Spring_Rigid.tcl;
source PanelZone.tcl
source BeamHinge.tcl
source ColumnHinge.tcl
source TimeHistorySolver.tcl;
source PushoverAnalysis.tcl;
source CyclicPushover.tcl;

# Results folders
file mkdir $MainFolder;
file mkdir $MainFolder/$SubFolder;

# Basic parameters
set NStory 12;
set NBay 3;
set E 206000.00;
set mu 0.3;
set fy_beam 345.00;
set fy_column 345.00;
uniaxialMaterial Elastic 9 1.e-9;
uniaxialMaterial Elastic 99 1.e12;
geomTransf Linear 1;
geomTransf PDelta 2;
geomTransf Corotational 3;
set A_Stiff 1.e8;
set I_Stiff 1.e13;

# Building geometry
set Floor1 0.0;
set Floor2 4200.0;
set Floor3 8200.0;
set Floor4 12200.0;
set Floor5 16200.0;
set Floor6 20200.0;
set Floor7 24200.0;
set Floor8 28200.0;
set Floor9 32200.0;
set Floor10 36200.0;
set Floor11 40200.0;
set Floor12 44200.0;
set Floor13 48200.0;

set Axis1 0.0;
set Axis2 6100.0;
set Axis3 12200.0;
set Axis4 18300.0;
set Axis5 24400.0;

set HBuilding 48200.0;
set story_heights [list 4200 4000 4000 4000 4000 4000 4000 4000 4000 4000 4000 4000];


# ------------------------------------ Nodes -------------------------------------

# Support nodes
node 10010100 $Axis1 $Floor1;
node 10010200 $Axis2 $Floor1;
node 10010300 $Axis3 $Floor1;
node 10010400 $Axis4 $Floor1;
node 10010500 $Axis5 $Floor1;

# Leaning column grid nodes
node 10020500 $Axis5 $Floor2;
node 10030500 $Axis5 $Floor3;
node 10040500 $Axis5 $Floor4;
node 10050500 $Axis5 $Floor5;
node 10060500 $Axis5 $Floor6;
node 10070500 $Axis5 $Floor7;
node 10080500 $Axis5 $Floor8;
node 10090500 $Axis5 $Floor9;
node 10100500 $Axis5 $Floor10;
node 10110500 $Axis5 $Floor11;
node 10120500 $Axis5 $Floor12;
node 10130500 $Axis5 $Floor13;

# Leaning column connected nodes
node 10020502 $Axis5 $Floor2;
node 10020501 $Axis5 $Floor2;
node 10030502 $Axis5 $Floor3;
node 10030501 $Axis5 $Floor3;
node 10040502 $Axis5 $Floor4;
node 10040501 $Axis5 $Floor4;
node 10050502 $Axis5 $Floor5;
node 10050501 $Axis5 $Floor5;
node 10060502 $Axis5 $Floor6;
node 10060501 $Axis5 $Floor6;
node 10070502 $Axis5 $Floor7;
node 10070501 $Axis5 $Floor7;
node 10080502 $Axis5 $Floor8;
node 10080501 $Axis5 $Floor8;
node 10090502 $Axis5 $Floor9;
node 10090501 $Axis5 $Floor9;
node 10100502 $Axis5 $Floor10;
node 10100501 $Axis5 $Floor10;
node 10110502 $Axis5 $Floor11;
node 10110501 $Axis5 $Floor11;
node 10120502 $Axis5 $Floor12;
node 10120501 $Axis5 $Floor12;
node 10130502 $Axis5 $Floor13;

# Moment frame column nodes
node 10010101 $Axis1 $Floor1;  node 10010201 $Axis2 $Floor1;  node 10010301 $Axis3 $Floor1;  node 10010401 $Axis4 $Floor1;
node 10020102 $Axis1 [expr $Floor2 - 769.62/2];  node 10020202 $Axis2 [expr $Floor2 - 769.62/2];  node 10020302 $Axis3 [expr $Floor2 - 769.62/2];  node 10020402 $Axis4 [expr $Floor2 - 769.62/2];
node 10020101 $Axis1 [expr $Floor2 + 769.62/2];  node 10020201 $Axis2 [expr $Floor2 + 769.62/2];  node 10020301 $Axis3 [expr $Floor2 + 769.62/2];  node 10020401 $Axis4 [expr $Floor2 + 769.62/2];
node 10030102 $Axis1 [expr $Floor3 - 769.62/2];  node 10030202 $Axis2 [expr $Floor3 - 769.62/2];  node 10030302 $Axis3 [expr $Floor3 - 769.62/2];  node 10030402 $Axis4 [expr $Floor3 - 769.62/2];
node 10030101 $Axis1 [expr $Floor3 + 769.62/2];  node 10030201 $Axis2 [expr $Floor3 + 769.62/2];  node 10030301 $Axis3 [expr $Floor3 + 769.62/2];  node 10030401 $Axis4 [expr $Floor3 + 769.62/2];
node 10040102 $Axis1 [expr $Floor4 - 769.62/2];  node 10040202 $Axis2 [expr $Floor4 - 769.62/2];  node 10040302 $Axis3 [expr $Floor4 - 769.62/2];  node 10040402 $Axis4 [expr $Floor4 - 769.62/2];
node 10040101 $Axis1 [expr $Floor4 + 769.62/2];  node 10040201 $Axis2 [expr $Floor4 + 769.62/2];  node 10040301 $Axis3 [expr $Floor4 + 769.62/2];  node 10040401 $Axis4 [expr $Floor4 + 769.62/2];
node 10050102 $Axis1 [expr $Floor5 - 769.62/2];  node 10050202 $Axis2 [expr $Floor5 - 769.62/2];  node 10050302 $Axis3 [expr $Floor5 - 769.62/2];  node 10050402 $Axis4 [expr $Floor5 - 769.62/2];
node 10050101 $Axis1 [expr $Floor5 + 769.62/2];  node 10050201 $Axis2 [expr $Floor5 + 769.62/2];  node 10050301 $Axis3 [expr $Floor5 + 769.62/2];  node 10050401 $Axis4 [expr $Floor5 + 769.62/2];
node 10060102 $Axis1 [expr $Floor6 - 767.08/2];  node 10060202 $Axis2 [expr $Floor6 - 767.08/2];  node 10060302 $Axis3 [expr $Floor6 - 767.08/2];  node 10060402 $Axis4 [expr $Floor6 - 767.08/2];
node 10060101 $Axis1 [expr $Floor6 + 767.08/2];  node 10060201 $Axis2 [expr $Floor6 + 767.08/2];  node 10060301 $Axis3 [expr $Floor6 + 767.08/2];  node 10060401 $Axis4 [expr $Floor6 + 767.08/2];
node 10070102 $Axis1 [expr $Floor7 - 767.08/2];  node 10070202 $Axis2 [expr $Floor7 - 767.08/2];  node 10070302 $Axis3 [expr $Floor7 - 767.08/2];  node 10070402 $Axis4 [expr $Floor7 - 767.08/2];
node 10070101 $Axis1 [expr $Floor7 + 767.08/2];  node 10070201 $Axis2 [expr $Floor7 + 767.08/2];  node 10070301 $Axis3 [expr $Floor7 + 767.08/2];  node 10070401 $Axis4 [expr $Floor7 + 767.08/2];
node 10080102 $Axis1 [expr $Floor8 - 756.92/2];  node 10080202 $Axis2 [expr $Floor8 - 756.92/2];  node 10080302 $Axis3 [expr $Floor8 - 756.92/2];  node 10080402 $Axis4 [expr $Floor8 - 756.92/2];
node 10080101 $Axis1 [expr $Floor8 + 756.92/2];  node 10080201 $Axis2 [expr $Floor8 + 756.92/2];  node 10080301 $Axis3 [expr $Floor8 + 756.92/2];  node 10080401 $Axis4 [expr $Floor8 + 756.92/2];
node 10090102 $Axis1 [expr $Floor9 - 756.92/2];  node 10090202 $Axis2 [expr $Floor9 - 756.92/2];  node 10090302 $Axis3 [expr $Floor9 - 756.92/2];  node 10090402 $Axis4 [expr $Floor9 - 756.92/2];
node 10090101 $Axis1 [expr $Floor9 + 756.92/2];  node 10090201 $Axis2 [expr $Floor9 + 756.92/2];  node 10090301 $Axis3 [expr $Floor9 + 756.92/2];  node 10090401 $Axis4 [expr $Floor9 + 756.92/2];
node 10100102 $Axis1 [expr $Floor10 - 683.26/2];  node 10100202 $Axis2 [expr $Floor10 - 683.26/2];  node 10100302 $Axis3 [expr $Floor10 - 683.26/2];  node 10100402 $Axis4 [expr $Floor10 - 683.26/2];
node 10100101 $Axis1 [expr $Floor10 + 683.26/2];  node 10100201 $Axis2 [expr $Floor10 + 683.26/2];  node 10100301 $Axis3 [expr $Floor10 + 683.26/2];  node 10100401 $Axis4 [expr $Floor10 + 683.26/2];
node 10110102 $Axis1 [expr $Floor11 - 683.26/2];  node 10110202 $Axis2 [expr $Floor11 - 683.26/2];  node 10110302 $Axis3 [expr $Floor11 - 683.26/2];  node 10110402 $Axis4 [expr $Floor11 - 683.26/2];
node 10110101 $Axis1 [expr $Floor11 + 683.26/2];  node 10110201 $Axis2 [expr $Floor11 + 683.26/2];  node 10110301 $Axis3 [expr $Floor11 + 683.26/2];  node 10110401 $Axis4 [expr $Floor11 + 683.26/2];
node 10120102 $Axis1 [expr $Floor12 - 607.06/2];  node 10120202 $Axis2 [expr $Floor12 - 607.06/2];  node 10120302 $Axis3 [expr $Floor12 - 607.06/2];  node 10120402 $Axis4 [expr $Floor12 - 607.06/2];
node 10120101 $Axis1 [expr $Floor12 + 607.06/2];  node 10120201 $Axis2 [expr $Floor12 + 607.06/2];  node 10120301 $Axis3 [expr $Floor12 + 607.06/2];  node 10120401 $Axis4 [expr $Floor12 + 607.06/2];
node 10130102 $Axis1 [expr $Floor13 - 607.06/2];  node 10130202 $Axis2 [expr $Floor13 - 607.06/2];  node 10130302 $Axis3 [expr $Floor13 - 607.06/2];  node 10130402 $Axis4 [expr $Floor13 - 607.06/2];

# Moment frame beam nodes
node 10020104 [expr $Axis1 + 364.49] $Floor2;  node 10020205 [expr $Axis2 - 372.11] $Floor2;  node 10020204 [expr $Axis2 + 372.11] $Floor2;  node 10020305 [expr $Axis3 - 372.11] $Floor2;  node 10020304 [expr $Axis3 + 372.11] $Floor2;  node 10020405 [expr $Axis4 - 364.49] $Floor2;
node 10030104 [expr $Axis1 + 364.49] $Floor3;  node 10030205 [expr $Axis2 - 372.11] $Floor3;  node 10030204 [expr $Axis2 + 372.11] $Floor3;  node 10030305 [expr $Axis3 - 372.11] $Floor3;  node 10030304 [expr $Axis3 + 372.11] $Floor3;  node 10030405 [expr $Axis4 - 364.49] $Floor3;
node 10040104 [expr $Axis1 + 360.68] $Floor4;  node 10040205 [expr $Axis2 - 368.30] $Floor4;  node 10040204 [expr $Axis2 + 368.30] $Floor4;  node 10040305 [expr $Axis3 - 368.30] $Floor4;  node 10040304 [expr $Axis3 + 368.30] $Floor4;  node 10040405 [expr $Axis4 - 360.68] $Floor4;
node 10050104 [expr $Axis1 + 360.68] $Floor5;  node 10050205 [expr $Axis2 - 368.30] $Floor5;  node 10050204 [expr $Axis2 + 368.30] $Floor5;  node 10050305 [expr $Axis3 - 368.30] $Floor5;  node 10050304 [expr $Axis3 + 368.30] $Floor5;  node 10050405 [expr $Axis4 - 360.68] $Floor5;
node 10060104 [expr $Axis1 + 353.06] $Floor6;  node 10060205 [expr $Axis2 - 360.68] $Floor6;  node 10060204 [expr $Axis2 + 360.68] $Floor6;  node 10060305 [expr $Axis3 - 360.68] $Floor6;  node 10060304 [expr $Axis3 + 360.68] $Floor6;  node 10060405 [expr $Axis4 - 353.06] $Floor6;
node 10070104 [expr $Axis1 + 353.06] $Floor7;  node 10070205 [expr $Axis2 - 360.68] $Floor7;  node 10070204 [expr $Axis2 + 360.68] $Floor7;  node 10070305 [expr $Axis3 - 360.68] $Floor7;  node 10070304 [expr $Axis3 + 360.68] $Floor7;  node 10070405 [expr $Axis4 - 353.06] $Floor7;
node 10080104 [expr $Axis1 + 350.52] $Floor8;  node 10080205 [expr $Axis2 - 356.87] $Floor8;  node 10080204 [expr $Axis2 + 356.87] $Floor8;  node 10080305 [expr $Axis3 - 356.87] $Floor8;  node 10080304 [expr $Axis3 + 356.87] $Floor8;  node 10080405 [expr $Axis4 - 350.52] $Floor8;
node 10090104 [expr $Axis1 + 350.52] $Floor9;  node 10090205 [expr $Axis2 - 356.87] $Floor9;  node 10090204 [expr $Axis2 + 356.87] $Floor9;  node 10090305 [expr $Axis3 - 356.87] $Floor9;  node 10090304 [expr $Axis3 + 356.87] $Floor9;  node 10090405 [expr $Axis4 - 350.52] $Floor9;
node 10100104 [expr $Axis1 + 346.71] $Floor10;  node 10100205 [expr $Axis2 - 350.52] $Floor10;  node 10100204 [expr $Axis2 + 350.52] $Floor10;  node 10100305 [expr $Axis3 - 350.52] $Floor10;  node 10100304 [expr $Axis3 + 350.52] $Floor10;  node 10100405 [expr $Axis4 - 346.71] $Floor10;
node 10110104 [expr $Axis1 + 346.71] $Floor11;  node 10110205 [expr $Axis2 - 350.52] $Floor11;  node 10110204 [expr $Axis2 + 350.52] $Floor11;  node 10110305 [expr $Axis3 - 350.52] $Floor11;  node 10110304 [expr $Axis3 + 350.52] $Floor11;  node 10110405 [expr $Axis4 - 346.71] $Floor11;
node 10120104 [expr $Axis1 + 341.63] $Floor12;  node 10120205 [expr $Axis2 - 344.17] $Floor12;  node 10120204 [expr $Axis2 + 344.17] $Floor12;  node 10120305 [expr $Axis3 - 344.17] $Floor12;  node 10120304 [expr $Axis3 + 344.17] $Floor12;  node 10120405 [expr $Axis4 - 341.63] $Floor12;
node 10130104 [expr $Axis1 + 341.63] $Floor13;  node 10130205 [expr $Axis2 - 344.17] $Floor13;  node 10130204 [expr $Axis2 + 344.17] $Floor13;  node 10130305 [expr $Axis3 - 344.17] $Floor13;  node 10130304 [expr $Axis3 + 344.17] $Floor13;  node 10130405 [expr $Axis4 - 341.63] $Floor13;

# Beam spring nodes (If RBS length equal zero, beam spring nodes will not be generated)













# Column splice ndoes
node 10030107 $Axis1 [expr $Floor3 + 0.5 * 4000.00];  node 10030207 $Axis2 [expr $Floor3 + 0.5 * 4000.00];  node 10030307 $Axis3 [expr $Floor3 + 0.5 * 4000.00];  node 10030407 $Axis4 [expr $Floor3 + 0.5 * 4000.00];
node 10050107 $Axis1 [expr $Floor5 + 0.5 * 4000.00];  node 10050207 $Axis2 [expr $Floor5 + 0.5 * 4000.00];  node 10050307 $Axis3 [expr $Floor5 + 0.5 * 4000.00];  node 10050407 $Axis4 [expr $Floor5 + 0.5 * 4000.00];
node 10070107 $Axis1 [expr $Floor7 + 0.5 * 4000.00];  node 10070207 $Axis2 [expr $Floor7 + 0.5 * 4000.00];  node 10070307 $Axis3 [expr $Floor7 + 0.5 * 4000.00];  node 10070407 $Axis4 [expr $Floor7 + 0.5 * 4000.00];
node 10090107 $Axis1 [expr $Floor9 + 0.5 * 4000.00];  node 10090207 $Axis2 [expr $Floor9 + 0.5 * 4000.00];  node 10090307 $Axis3 [expr $Floor9 + 0.5 * 4000.00];  node 10090407 $Axis4 [expr $Floor9 + 0.5 * 4000.00];
node 10110107 $Axis1 [expr $Floor11 + 0.5 * 4000.00];  node 10110207 $Axis2 [expr $Floor11 + 0.5 * 4000.00];  node 10110307 $Axis3 [expr $Floor11 + 0.5 * 4000.00];  node 10110407 $Axis4 [expr $Floor11 + 0.5 * 4000.00];

# Beam splice ndoes
node 10020208 [expr $Axis2 + 6100.00 / 2] $Floor2;
node 10030208 [expr $Axis2 + 6100.00 / 2] $Floor3;
node 10040208 [expr $Axis2 + 6100.00 / 2] $Floor4;
node 10050208 [expr $Axis2 + 6100.00 / 2] $Floor5;
node 10060208 [expr $Axis2 + 6100.00 / 2] $Floor6;
node 10070208 [expr $Axis2 + 6100.00 / 2] $Floor7;
node 10080208 [expr $Axis2 + 6100.00 / 2] $Floor8;
node 10090208 [expr $Axis2 + 6100.00 / 2] $Floor9;
node 10100208 [expr $Axis2 + 6100.00 / 2] $Floor10;
node 10110208 [expr $Axis2 + 6100.00 / 2] $Floor11;
node 10120208 [expr $Axis2 + 6100.00 / 2] $Floor12;
node 10130208 [expr $Axis2 + 6100.00 / 2] $Floor13;


# ----------------------------------- Elements -----------------------------------

set n 10.;

# Column elements
element elasticBeamColumn 10010101 10010101 10020102 44774.10 $E [expr ($n+1)/$n*4037444828.32] 2;  element elasticBeamColumn 10010201 10010201 10020202 53612.80 $E [expr ($n+1)/$n*4953153964.64] 2;  element elasticBeamColumn 10010301 10010301 10020302 53612.80 $E [expr ($n+1)/$n*4953153964.64] 2;  element elasticBeamColumn 10010401 10010401 10020402 44774.10 $E [expr ($n+1)/$n*4037444828.32] 2;
element elasticBeamColumn 10020101 10020101 10030102 44774.10 $E [expr ($n+1)/$n*4037444828.32] 2;  element elasticBeamColumn 10020201 10020201 10030202 53612.80 $E [expr ($n+1)/$n*4953153964.64] 2;  element elasticBeamColumn 10020301 10020301 10030302 53612.80 $E [expr ($n+1)/$n*4953153964.64] 2;  element elasticBeamColumn 10020401 10020401 10030402 44774.10 $E [expr ($n+1)/$n*4037444828.32] 2;
element elasticBeamColumn 10030102 10030101 10030107 44774.10 $E [expr ($n+1)/$n*4037444828.32] 2;  element elasticBeamColumn 10030202 10030201 10030207 53612.80 $E [expr ($n+1)/$n*4953153964.64] 2;  element elasticBeamColumn 10030302 10030301 10030307 53612.80 $E [expr ($n+1)/$n*4953153964.64] 2;  element elasticBeamColumn 10030402 10030401 10030407 44774.10 $E [expr ($n+1)/$n*4037444828.32] 2;
element elasticBeamColumn 10030103 10030107 10040102 41225.72 $E [expr ($n+1)/$n*3708622002.10] 2;  element elasticBeamColumn 10030203 10030207 10040202 49096.68 $E [expr ($n+1)/$n*4495299396.48] 2;  element elasticBeamColumn 10030303 10030307 10040302 49096.68 $E [expr ($n+1)/$n*4495299396.48] 2;  element elasticBeamColumn 10030403 10030407 10040402 41225.72 $E [expr ($n+1)/$n*3708622002.10] 2;
element elasticBeamColumn 10040101 10040101 10050102 41225.72 $E [expr ($n+1)/$n*3708622002.10] 2;  element elasticBeamColumn 10040201 10040201 10050202 49096.68 $E [expr ($n+1)/$n*4495299396.48] 2;  element elasticBeamColumn 10040301 10040301 10050302 49096.68 $E [expr ($n+1)/$n*4495299396.48] 2;  element elasticBeamColumn 10040401 10040401 10050402 41225.72 $E [expr ($n+1)/$n*3708622002.10] 2;
element elasticBeamColumn 10050102 10050101 10050107 41225.72 $E [expr ($n+1)/$n*3708622002.10] 2;  element elasticBeamColumn 10050202 10050201 10050207 49096.68 $E [expr ($n+1)/$n*4495299396.48] 2;  element elasticBeamColumn 10050302 10050301 10050307 49096.68 $E [expr ($n+1)/$n*4495299396.48] 2;  element elasticBeamColumn 10050402 10050401 10050407 41225.72 $E [expr ($n+1)/$n*3708622002.10] 2;
element elasticBeamColumn 10050103 10050107 10060102 33870.90 $E [expr ($n+1)/$n*2921944607.71] 2;  element elasticBeamColumn 10050203 10050207 10060202 41225.72 $E [expr ($n+1)/$n*3708622002.10] 2;  element elasticBeamColumn 10050303 10050307 10060302 41225.72 $E [expr ($n+1)/$n*3708622002.10] 2;  element elasticBeamColumn 10050403 10050407 10060402 33870.90 $E [expr ($n+1)/$n*2921944607.71] 2;
element elasticBeamColumn 10060101 10060101 10070102 33870.90 $E [expr ($n+1)/$n*2921944607.71] 2;  element elasticBeamColumn 10060201 10060201 10070202 41225.72 $E [expr ($n+1)/$n*3708622002.10] 2;  element elasticBeamColumn 10060301 10060301 10070302 41225.72 $E [expr ($n+1)/$n*3708622002.10] 2;  element elasticBeamColumn 10060401 10060401 10070402 33870.90 $E [expr ($n+1)/$n*2921944607.71] 2;
element elasticBeamColumn 10070102 10070101 10070107 33870.90 $E [expr ($n+1)/$n*2921944607.71] 2;  element elasticBeamColumn 10070202 10070201 10070207 41225.72 $E [expr ($n+1)/$n*3708622002.10] 2;  element elasticBeamColumn 10070302 10070301 10070307 41225.72 $E [expr ($n+1)/$n*3708622002.10] 2;  element elasticBeamColumn 10070402 10070401 10070407 33870.90 $E [expr ($n+1)/$n*2921944607.71] 2;
element elasticBeamColumn 10070103 10070107 10080102 24387.05 $E [expr ($n+1)/$n*1981261585.86] 2;  element elasticBeamColumn 10070203 10070207 10080202 36838.64 $E [expr ($n+1)/$n*3271579005.22] 2;  element elasticBeamColumn 10070303 10070307 10080302 36838.64 $E [expr ($n+1)/$n*3271579005.22] 2;  element elasticBeamColumn 10070403 10070407 10080402 24387.05 $E [expr ($n+1)/$n*1981261585.86] 2;
element elasticBeamColumn 10080101 10080101 10090102 24387.05 $E [expr ($n+1)/$n*1981261585.86] 2;  element elasticBeamColumn 10080201 10080201 10090202 36838.64 $E [expr ($n+1)/$n*3271579005.22] 2;  element elasticBeamColumn 10080301 10080301 10090302 36838.64 $E [expr ($n+1)/$n*3271579005.22] 2;  element elasticBeamColumn 10080401 10080401 10090402 24387.05 $E [expr ($n+1)/$n*1981261585.86] 2;
element elasticBeamColumn 10090102 10090101 10090107 24387.05 $E [expr ($n+1)/$n*1981261585.86] 2;  element elasticBeamColumn 10090202 10090201 10090207 36838.64 $E [expr ($n+1)/$n*3271579005.22] 2;  element elasticBeamColumn 10090302 10090301 10090307 36838.64 $E [expr ($n+1)/$n*3271579005.22] 2;  element elasticBeamColumn 10090402 10090401 10090407 24387.05 $E [expr ($n+1)/$n*1981261585.86] 2;
element elasticBeamColumn 10090103 10090107 10100102 21677.38 $E [expr ($n+1)/$n*1698224216.45] 2;  element elasticBeamColumn 10090203 10090207 10100202 24387.05 $E [expr ($n+1)/$n*1981261585.86] 2;  element elasticBeamColumn 10090303 10090307 10100302 24387.05 $E [expr ($n+1)/$n*1981261585.86] 2;  element elasticBeamColumn 10090403 10090407 10100402 21677.38 $E [expr ($n+1)/$n*1698224216.45] 2;
element elasticBeamColumn 10100101 10100101 10110102 21677.38 $E [expr ($n+1)/$n*1698224216.45] 2;  element elasticBeamColumn 10100201 10100201 10110202 24387.05 $E [expr ($n+1)/$n*1981261585.86] 2;  element elasticBeamColumn 10100301 10100301 10110302 24387.05 $E [expr ($n+1)/$n*1981261585.86] 2;  element elasticBeamColumn 10100401 10100401 10110402 21677.38 $E [expr ($n+1)/$n*1698224216.45] 2;
element elasticBeamColumn 10110102 10110101 10110107 21677.38 $E [expr ($n+1)/$n*1698224216.45] 2;  element elasticBeamColumn 10110202 10110201 10110207 24387.05 $E [expr ($n+1)/$n*1981261585.86] 2;  element elasticBeamColumn 10110302 10110301 10110307 24387.05 $E [expr ($n+1)/$n*1981261585.86] 2;  element elasticBeamColumn 10110402 10110401 10110407 21677.38 $E [expr ($n+1)/$n*1698224216.45] 2;
element elasticBeamColumn 10110103 10110107 10120102 17806.42 $E [expr ($n+1)/$n*1361076761.71] 2;  element elasticBeamColumn 10110203 10110207 10120202 19354.80 $E [expr ($n+1)/$n*1506757760.67] 2;  element elasticBeamColumn 10110303 10110307 10120302 19354.80 $E [expr ($n+1)/$n*1506757760.67] 2;  element elasticBeamColumn 10110403 10110407 10120402 17806.42 $E [expr ($n+1)/$n*1361076761.71] 2;
element elasticBeamColumn 10120101 10120101 10130102 17806.42 $E [expr ($n+1)/$n*1361076761.71] 2;  element elasticBeamColumn 10120201 10120201 10130202 19354.80 $E [expr ($n+1)/$n*1506757760.67] 2;  element elasticBeamColumn 10120301 10120301 10130302 19354.80 $E [expr ($n+1)/$n*1506757760.67] 2;  element elasticBeamColumn 10120401 10120401 10130402 17806.42 $E [expr ($n+1)/$n*1361076761.71] 2;

# Beam elements
element elasticBeamColumn 10020104 10020104 10020205 25032.21 $E [expr ($n+1)/$n*2401655325.71] 2;  element elasticBeamColumn 10020211 10020204 10020208 25032.21 $E [expr ($n+1)/$n*2401655325.71] 2;  element elasticBeamColumn 10020212 10020208 10020305 25032.21 $E [expr ($n+1)/$n*2401655325.71] 2;  element elasticBeamColumn 10020304 10020304 10020405 25032.21 $E [expr ($n+1)/$n*2401655325.71] 2;
element elasticBeamColumn 10030104 10030104 10030205 25032.21 $E [expr ($n+1)/$n*2401655325.71] 2;  element elasticBeamColumn 10030211 10030204 10030208 25032.21 $E [expr ($n+1)/$n*2401655325.71] 2;  element elasticBeamColumn 10030212 10030208 10030305 25032.21 $E [expr ($n+1)/$n*2401655325.71] 2;  element elasticBeamColumn 10030304 10030304 10030405 25032.21 $E [expr ($n+1)/$n*2401655325.71] 2;
element elasticBeamColumn 10040104 10040104 10040205 25032.21 $E [expr ($n+1)/$n*2401655325.71] 2;  element elasticBeamColumn 10040211 10040204 10040208 25032.21 $E [expr ($n+1)/$n*2401655325.71] 2;  element elasticBeamColumn 10040212 10040208 10040305 25032.21 $E [expr ($n+1)/$n*2401655325.71] 2;  element elasticBeamColumn 10040304 10040304 10040405 25032.21 $E [expr ($n+1)/$n*2401655325.71] 2;
element elasticBeamColumn 10050104 10050104 10050205 25032.21 $E [expr ($n+1)/$n*2401655325.71] 2;  element elasticBeamColumn 10050211 10050204 10050208 25032.21 $E [expr ($n+1)/$n*2401655325.71] 2;  element elasticBeamColumn 10050212 10050208 10050305 25032.21 $E [expr ($n+1)/$n*2401655325.71] 2;  element elasticBeamColumn 10050304 10050304 10050405 25032.21 $E [expr ($n+1)/$n*2401655325.71] 2;
element elasticBeamColumn 10060104 10060104 10060205 23548.34 $E [expr ($n+1)/$n*2231000441.22] 2;  element elasticBeamColumn 10060211 10060204 10060208 23548.34 $E [expr ($n+1)/$n*2231000441.22] 2;  element elasticBeamColumn 10060212 10060208 10060305 23548.34 $E [expr ($n+1)/$n*2231000441.22] 2;  element elasticBeamColumn 10060304 10060304 10060405 23548.34 $E [expr ($n+1)/$n*2231000441.22] 2;
element elasticBeamColumn 10070104 10070104 10070205 23548.34 $E [expr ($n+1)/$n*2231000441.22] 2;  element elasticBeamColumn 10070211 10070204 10070208 23548.34 $E [expr ($n+1)/$n*2231000441.22] 2;  element elasticBeamColumn 10070212 10070208 10070305 23548.34 $E [expr ($n+1)/$n*2231000441.22] 2;  element elasticBeamColumn 10070304 10070304 10070405 23548.34 $E [expr ($n+1)/$n*2231000441.22] 2;
element elasticBeamColumn 10080104 10080104 10080205 20451.57 $E [expr ($n+1)/$n*1860554472.43] 2;  element elasticBeamColumn 10080211 10080204 10080208 20451.57 $E [expr ($n+1)/$n*1860554472.43] 2;  element elasticBeamColumn 10080212 10080208 10080305 20451.57 $E [expr ($n+1)/$n*1860554472.43] 2;  element elasticBeamColumn 10080304 10080304 10080405 20451.57 $E [expr ($n+1)/$n*1860554472.43] 2;
element elasticBeamColumn 10090104 10090104 10090205 20451.57 $E [expr ($n+1)/$n*1860554472.43] 2;  element elasticBeamColumn 10090211 10090204 10090208 20451.57 $E [expr ($n+1)/$n*1860554472.43] 2;  element elasticBeamColumn 10090212 10090208 10090305 20451.57 $E [expr ($n+1)/$n*1860554472.43] 2;  element elasticBeamColumn 10090304 10090304 10090405 20451.57 $E [expr ($n+1)/$n*1860554472.43] 2;
element elasticBeamColumn 10100104 10100104 10100205 17806.42 $E [expr ($n+1)/$n*1361076761.71] 2;  element elasticBeamColumn 10100211 10100204 10100208 17806.42 $E [expr ($n+1)/$n*1361076761.71] 2;  element elasticBeamColumn 10100212 10100208 10100305 17806.42 $E [expr ($n+1)/$n*1361076761.71] 2;  element elasticBeamColumn 10100304 10100304 10100405 17806.42 $E [expr ($n+1)/$n*1361076761.71] 2;
element elasticBeamColumn 10110104 10110104 10110205 17806.42 $E [expr ($n+1)/$n*1361076761.71] 2;  element elasticBeamColumn 10110211 10110204 10110208 17806.42 $E [expr ($n+1)/$n*1361076761.71] 2;  element elasticBeamColumn 10110212 10110208 10110305 17806.42 $E [expr ($n+1)/$n*1361076761.71] 2;  element elasticBeamColumn 10110304 10110304 10110405 17806.42 $E [expr ($n+1)/$n*1361076761.71] 2;
element elasticBeamColumn 10120104 10120104 10120205 14451.58 $E [expr ($n+1)/$n*874085993.76] 2;  element elasticBeamColumn 10120211 10120204 10120208 14451.58 $E [expr ($n+1)/$n*874085993.76] 2;  element elasticBeamColumn 10120212 10120208 10120305 14451.58 $E [expr ($n+1)/$n*874085993.76] 2;  element elasticBeamColumn 10120304 10120304 10120405 14451.58 $E [expr ($n+1)/$n*874085993.76] 2;
element elasticBeamColumn 10130104 10130104 10130205 14451.58 $E [expr ($n+1)/$n*874085993.76] 2;  element elasticBeamColumn 10130211 10130204 10130208 14451.58 $E [expr ($n+1)/$n*874085993.76] 2;  element elasticBeamColumn 10130212 10130208 10130305 14451.58 $E [expr ($n+1)/$n*874085993.76] 2;  element elasticBeamColumn 10130304 10130304 10130405 14451.58 $E [expr ($n+1)/$n*874085993.76] 2;

# Panel zones
# PanelNone Floor Axis X Y E mu fy_column A_stiff I_stiff d_col d_beam tp tf bf transfTag type_ position check ""
PanelZone 2 1 $Axis1 $Floor2 $E $mu $fy_column $A_Stiff $I_Stiff 728.98 769.62 29.46 40.89 360.68 2 1 "L";  PanelZone 2 2 $Axis2 $Floor2 $E $mu $fy_column $A_Stiff $I_Stiff 744.22 769.62 57.09 49.02 365.76 2 1 "I";  PanelZone 2 3 $Axis3 $Floor2 $E $mu $fy_column $A_Stiff $I_Stiff 744.22 769.62 57.09 49.02 365.76 2 1 "I";  PanelZone 2 4 $Axis4 $Floor2 $E $mu $fy_column $A_Stiff $I_Stiff 728.98 769.
PanelZone 3 1 $Axis1 $Floor3 $E $mu $fy_column $A_Stiff $I_Stiff 728.98 769.62 29.46 40.89 360.68 2 1 "L";  PanelZone 3 2 $Axis2 $Floor3 $E $mu $fy_column $A_Stiff $I_Stiff 744.22 769.62 55.50 49.02 365.76 2 1 "I";  PanelZone 3 3 $Axis3 $Floor3 $E $mu $fy_column $A_Stiff $I_Stiff 744.22 769.62 55.50 49.02 365.76 2 1 "I";  PanelZone 3 4 $Axis4 $Floor3 $E $mu $fy_column $A_Stiff $I_Stiff 728.98 769.
PanelZone 4 1 $Axis1 $Floor4 $E $mu $fy_column $A_Stiff $I_Stiff 721.36 769.62 29.02 38.10 358.14 2 1 "L";  PanelZone 4 2 $Axis2 $Floor4 $E $mu $fy_column $A_Stiff $I_Stiff 736.60 769.62 58.23 44.96 363.22 2 1 "I";  PanelZone 4 3 $Axis3 $Floor4 $E $mu $fy_column $A_Stiff $I_Stiff 736.60 769.62 58.23 44.96 363.22 2 1 "I";  PanelZone 4 4 $Axis4 $Floor4 $E $mu $fy_column $A_Stiff $I_Stiff 721.36 769.
PanelZone 5 1 $Axis1 $Floor5 $E $mu $fy_column $A_Stiff $I_Stiff 721.36 769.62 29.02 38.10 358.14 2 1 "L";  PanelZone 5 2 $Axis2 $Floor5 $E $mu $fy_column $A_Stiff $I_Stiff 736.60 769.62 58.23 44.96 363.22 2 1 "I";  PanelZone 5 3 $Axis3 $Floor5 $E $mu $fy_column $A_Stiff $I_Stiff 736.60 769.62 58.23 44.96 363.22 2 1 "I";  PanelZone 5 4 $Axis4 $Floor5 $E $mu $fy_column $A_Stiff $I_Stiff 721.36 769.
PanelZone 6 1 $Axis1 $Floor6 $E $mu $fy_column $A_Stiff $I_Stiff 706.12 767.08 27.94 30.23 358.14 2 1 "L";  PanelZone 6 2 $Axis2 $Floor6 $E $mu $fy_column $A_Stiff $I_Stiff 721.36 767.08 54.42 38.10 358.14 2 1 "I";  PanelZone 6 3 $Axis3 $Floor6 $E $mu $fy_column $A_Stiff $I_Stiff 721.36 767.08 54.42 38.10 358.14 2 1 "I";  PanelZone 6 4 $Axis4 $Floor6 $E $mu $fy_column $A_Stiff $I_Stiff 706.12 767.
PanelZone 7 1 $Axis1 $Floor7 $E $mu $fy_column $A_Stiff $I_Stiff 706.12 767.08 27.94 30.23 358.14 2 1 "L";  PanelZone 7 2 $Axis2 $Floor7 $E $mu $fy_column $A_Stiff $I_Stiff 721.36 767.08 54.42 38.10 358.14 2 1 "I";  PanelZone 7 3 $Axis3 $Floor7 $E $mu $fy_column $A_Stiff $I_Stiff 721.36 767.08 54.42 38.10 358.14 2 1 "I";  PanelZone 7 4 $Axis4 $Floor7 $E $mu $fy_column $A_Stiff $I_Stiff 706.12 767.
PanelZone 8 1 $Axis1 $Floor8 $E $mu $fy_column $A_Stiff $I_Stiff 701.04 756.92 23.43 27.94 254.00 2 1 "L";  PanelZone 8 2 $Axis2 $Floor8 $E $mu $fy_column $A_Stiff $I_Stiff 713.74 756.92 46.04 34.04 355.60 2 1 "I";  PanelZone 8 3 $Axis3 $Floor8 $E $mu $fy_column $A_Stiff $I_Stiff 713.74 756.92 46.04 34.04 355.60 2 1 "I";  PanelZone 8 4 $Axis4 $Floor8 $E $mu $fy_column $A_Stiff $I_Stiff 701.04 756.
PanelZone 9 1 $Axis1 $Floor9 $E $mu $fy_column $A_Stiff $I_Stiff 701.04 756.92 23.43 27.94 254.00 2 1 "L";  PanelZone 9 2 $Axis2 $Floor9 $E $mu $fy_column $A_Stiff $I_Stiff 713.74 756.92 46.04 34.04 355.60 2 1 "I";  PanelZone 9 3 $Axis3 $Floor9 $E $mu $fy_column $A_Stiff $I_Stiff 713.74 756.92 46.04 34.04 355.60 2 1 "I";  PanelZone 9 4 $Axis4 $Floor9 $E $mu $fy_column $A_Stiff $I_Stiff 701.04 756.
PanelZone 10 1 $Axis1 $Floor10 $E $mu $fy_column $A_Stiff $I_Stiff 693.42 683.26 22.42 23.62 256.54 2 1 "L";  PanelZone 10 2 $Axis2 $Floor10 $E $mu $fy_column $A_Stiff $I_Stiff 701.04 683.26 42.48 27.94 254.00 2 1 "I";  PanelZone 10 3 $Axis3 $Floor10 $E $mu $fy_column $A_Stiff $I_Stiff 701.04 683.26 42.48 27.94 254.00 2 1 "I";  PanelZone 10 4 $Axis4 $Floor10 $E $mu $fy_column $A_Stiff $I_Stiff 693
PanelZone 11 1 $Axis1 $Floor11 $E $mu $fy_column $A_Stiff $I_Stiff 693.42 683.26 22.42 23.62 256.54 2 1 "L";  PanelZone 11 2 $Axis2 $Floor11 $E $mu $fy_column $A_Stiff $I_Stiff 701.04 683.26 42.48 27.94 254.00 2 1 "I";  PanelZone 11 3 $Axis3 $Floor11 $E $mu $fy_column $A_Stiff $I_Stiff 701.04 683.26 42.48 27.94 254.00 2 1 "I";  PanelZone 11 4 $Axis4 $Floor11 $E $mu $fy_column $A_Stiff $I_Stiff 693
PanelZone 12 1 $Axis1 $Floor12 $E $mu $fy_column $A_Stiff $I_Stiff 683.26 607.06 18.80 18.92 254.00 2 1 "L";  PanelZone 12 2 $Axis2 $Floor12 $E $mu $fy_column $A_Stiff $I_Stiff 688.34 607.06 36.89 21.08 254.00 2 1 "I";  PanelZone 12 3 $Axis3 $Floor12 $E $mu $fy_column $A_Stiff $I_Stiff 688.34 607.06 36.89 21.08 254.00 2 1 "I";  PanelZone 12 4 $Axis4 $Floor12 $E $mu $fy_column $A_Stiff $I_Stiff 683
PanelZone 13 1 $Axis1 $Floor13 $E $mu $fy_column $A_Stiff $I_Stiff 683.26 607.06 18.80 18.92 254.00 2 1 "LT";  PanelZone 13 2 $Axis2 $Floor13 $E $mu $fy_column $A_Stiff $I_Stiff 688.34 607.06 36.89 21.08 254.00 2 1 "T";  PanelZone 13 3 $Axis3 $Floor13 $E $mu $fy_column $A_Stiff $I_Stiff 688.34 607.06 36.89 21.08 254.00 2 1 "T";  PanelZone 13 4 $Axis4 $Floor13 $E $mu $fy_column $A_Stiff $I_Stiff 68

# RBS elements (If RBS length equal zero, RBS element will not be generated)













# Beam hinges
# BeamHinge SpringID NodeI NodeJ E fy_beam Ix d htw bftf ry L Ls Lb My type_ {check ""}
BeamHinge 10020109 11020104 10020104 $E $fy_beam 2401655325.71 769.62 43.90 5.25 57.09 5363.4 2681.7 2681.7 2470595703.96 2;  BeamHinge 10020210 10020205 11020202 $E $fy_beam 2401655325.71 769.62 43.90 5.25 57.09 5363.4 2681.7 2681.7 2470595703.96 2;  BeamHinge 10020209 11020204 10020204 $E $fy_beam 2401655325.71 769.62 43.90 5.25 57.09 5355.8 2677.9 2677.9 2470595703.96 2;  BeamHinge 10020310 100
BeamHinge 10030109 11030104 10030104 $E $fy_beam 2401655325.71 769.62 43.90 5.25 57.09 5363.4 2681.7 2681.7 2470595703.96 2;  BeamHinge 10030210 10030205 11030202 $E $fy_beam 2401655325.71 769.62 43.90 5.25 57.09 5363.4 2681.7 2681.7 2470595703.96 2;  BeamHinge 10030209 11030204 10030204 $E $fy_beam 2401655325.71 769.62 43.90 5.25 57.09 5355.8 2677.9 2677.9 2470595703.96 2;  BeamHinge 10030310 100
BeamHinge 10040109 11040104 10040104 $E $fy_beam 2401655325.71 769.62 43.90 5.25 57.09 5371.0 2685.5 2685.5 2470595703.96 2;  BeamHinge 10040210 10040205 11040202 $E $fy_beam 2401655325.71 769.62 43.90 5.25 57.09 5371.0 2685.5 2685.5 2470595703.96 2;  BeamHinge 10040209 11040204 10040204 $E $fy_beam 2401655325.71 769.62 43.90 5.25 57.09 5363.4 2681.7 2681.7 2470595703.96 2;  BeamHinge 10040310 100
BeamHinge 10050109 11050104 10050104 $E $fy_beam 2401655325.71 769.62 43.90 5.25 57.09 5371.0 2685.5 2685.5 2470595703.96 2;  BeamHinge 10050210 10050205 11050202 $E $fy_beam 2401655325.71 769.62 43.90 5.25 57.09 5371.0 2685.5 2685.5 2470595703.96 2;  BeamHinge 10050209 11050204 10050204 $E $fy_beam 2401655325.71 769.62 43.90 5.25 57.09 5363.4 2681.7 2681.7 2470595703.96 2;  BeamHinge 10050310 100
BeamHinge 10060109 11060104 10060104 $E $fy_beam 2231000441.22 767.08 46.22 5.65 56.56 5386.3 2693.1 2693.1 2306643128.64 2;  BeamHinge 10060210 10060205 11060202 $E $fy_beam 2231000441.22 767.08 46.22 5.65 56.56 5386.3 2693.1 2693.1 2306643128.64 2;  BeamHinge 10060209 11060204 10060204 $E $fy_beam 2231000441.22 767.08 46.22 5.65 56.56 5378.6 2689.3 2689.3 2306643128.64 2;  BeamHinge 10060310 100
BeamHinge 10070109 11070104 10070104 $E $fy_beam 2231000441.22 767.08 46.22 5.65 56.56 5386.3 2693.1 2693.1 2306643128.64 2;  BeamHinge 10070210 10070205 11070202 $E $fy_beam 2231000441.22 767.08 46.22 5.65 56.56 5386.3 2693.1 2693.1 2306643128.64 2;  BeamHinge 10070209 11070204 10070204 $E $fy_beam 2231000441.22 767.08 46.22 5.65 56.56 5378.6 2689.3 2689.3 2306643128.64 2;  BeamHinge 10070310 100
BeamHinge 10080109 11080104 10080104 $E $fy_beam 1860554472.43 756.92 49.50 6.91 54.51 5392.6 2696.3 2696.3 1956123829.68 2;  BeamHinge 10080210 10080205 11080202 $E $fy_beam 1860554472.43 756.92 49.50 6.91 54.51 5392.6 2696.3 2696.3 1956123829.68 2;  BeamHinge 10080209 11080204 10080204 $E $fy_beam 1860554472.43 756.92 49.50 6.91 54.51 5386.3 2693.1 2693.1 1956123829.68 2;  BeamHinge 10080310 100
BeamHinge 10090109 11090104 10090104 $E $fy_beam 1860554472.43 756.92 49.50 6.91 54.51 5392.6 2696.3 2696.3 1956123829.68 2;  BeamHinge 10090210 10090205 11090202 $E $fy_beam 1860554472.43 756.92 49.50 6.91 54.51 5392.6 2696.3 2696.3 1956123829.68 2;  BeamHinge 10090209 11090204 10090204 $E $fy_beam 1860554472.43 756.92 49.50 6.91 54.51 5386.3 2693.1 2693.1 1956123829.68 2;  BeamHinge 10090310 100
BeamHinge 10100109 11100104 10100104 $E $fy_beam 1361076761.71 683.26 49.43 6.71 53.84 5402.8 2701.4 2701.4 1571683308.24 2;  BeamHinge 10100210 10100205 11100202 $E $fy_beam 1361076761.71 683.26 49.43 6.71 53.84 5402.8 2701.4 2701.4 1571683308.24 2;  BeamHinge 10100209 11100204 10100204 $E $fy_beam 1361076761.71 683.26 49.43 6.71 53.84 5399.0 2699.5 2699.5 1571683308.24 2;  BeamHinge 10100310 101
BeamHinge 10110109 11110104 10110104 $E $fy_beam 1361076761.71 683.26 49.43 6.71 53.84 5402.8 2701.4 2701.4 1571683308.24 2;  BeamHinge 10110210 10110205 11110202 $E $fy_beam 1361076761.71 683.26 49.43 6.71 53.84 5402.8 2701.4 2701.4 1571683308.24 2;  BeamHinge 10110209 11110204 10110204 $E $fy_beam 1361076761.71 683.26 49.43 6.71 53.84 5399.0 2699.5 2699.5 1571683308.24 2;  BeamHinge 10110310 101
BeamHinge 10120109 11120104 10120104 $E $fy_beam 874085993.76 607.06 48.95 6.61 48.75 5414.2 2707.1 2707.1 1130707416.00 2;  BeamHinge 10120210 10120205 11120202 $E $fy_beam 874085993.76 607.06 48.95 6.61 48.75 5414.2 2707.1 2707.1 1130707416.00 2;  BeamHinge 10120209 11120204 10120204 $E $fy_beam 874085993.76 607.06 48.95 6.61 48.75 5411.7 2705.8 2705.8 1130707416.00 2;  BeamHinge 10120310 101203
BeamHinge 10130109 11130104 10130104 $E $fy_beam 874085993.76 607.06 48.95 6.61 48.75 5414.2 2707.1 2707.1 1130707416.00 2;  BeamHinge 10130210 10130205 11130202 $E $fy_beam 874085993.76 607.06 48.95 6.61 48.75 5414.2 2707.1 2707.1 1130707416.00 2;  BeamHinge 10130209 11130204 10130204 $E $fy_beam 874085993.76 607.06 48.95 6.61 48.75 5411.7 2705.8 2705.8 1130707416.00 2;  BeamHinge 10130310 101303

# Column hinges
# Column SpringID NodeI NodeJ E Ix d htw ry L Lb My PPy SF_PPy pinned check ""
ColumnHinge 10010107 10010100 10010101 $E 4037444828.32 728.98 26.26 84.55 3815.19 3815.19 4364530625.76 0.1430 1.25 1;  ColumnHinge 10010207 10010200 10010201 $E 4953153964.64 744.22 22.51 86.02 3815.19 3815.19 5291710706.88 0.0796 1.25 1;  ColumnHinge 10010307 10010300 10010301 $E 4953153964.64 744.22 22.51 86.02 3815.19 3815.19 5291710706.88 0.0796 1.25 1;  ColumnHinge 10010407 10010400 1001040
ColumnHinge 10020108 10020102 11020101 $E 4037444828.32 728.98 26.26 84.55 3815.19 3815.19 4364530625.76 0.1430 1.25 1;  ColumnHinge 10020208 10020202 11020201 $E 4953153964.64 744.22 22.51 86.02 3815.19 3815.19 5291710706.88 0.0796 1.25 1;  ColumnHinge 10020308 10020302 11020301 $E 4953153964.64 744.22 22.51 86.02 3815.19 3815.19 5291710706.88 0.0796 1.25 1;  ColumnHinge 10020408 10020402 1102040
ColumnHinge 10020107 11020103 10020101 $E 4037444828.32 728.98 26.26 84.55 3230.38 3230.38 4364530625.76 0.1309 1.25 1;  ColumnHinge 10020207 11020203 10020201 $E 4953153964.64 744.22 22.51 86.02 3230.38 3230.38 5291710706.88 0.0729 1.25 1;  ColumnHinge 10020307 11020303 10020301 $E 4953153964.64 744.22 22.51 86.02 3230.38 3230.38 5291710706.88 0.0729 1.25 1;  ColumnHinge 10020407 11020403 1002040
ColumnHinge 10030108 10030102 11030101 $E 4037444828.32 728.98 26.26 84.55 3230.38 3230.38 4364530625.76 0.1309 1.25 1;  ColumnHinge 10030208 10030202 11030201 $E 4953153964.64 744.22 22.51 86.02 3230.38 3230.38 5291710706.88 0.0729 1.25 1;  ColumnHinge 10030308 10030302 11030301 $E 4953153964.64 744.22 22.51 86.02 3230.38 3230.38 5291710706.88 0.0729 1.25 1;  ColumnHinge 10030408 10030402 1103040
ColumnHinge 10030107 11030103 10030101 $E 4037444828.32 728.98 26.26 84.55 3230.38 3230.38 4364530625.76 0.1188 1.25 1;  ColumnHinge 10030207 11030203 10030201 $E 4953153964.64 744.22 22.51 86.02 3230.38 3230.38 5291710706.88 0.0661 1.25 1;  ColumnHinge 10030307 11030303 10030301 $E 4953153964.64 744.22 22.51 86.02 3230.38 3230.38 5291710706.88 0.0661 1.25 1;  ColumnHinge 10030407 11030403 1003040
ColumnHinge 10040108 10040102 11040101 $E 3708622002.10 721.36 28.70 84.31 3230.38 3230.38 4019664863.88 0.1290 1.25 1;  ColumnHinge 10040208 10040202 11040201 $E 4495299396.48 736.60 24.37 85.34 3230.38 3230.38 4816813592.16 0.0722 1.25 1;  ColumnHinge 10040308 10040302 11040301 $E 4495299396.48 736.60 24.37 85.34 3230.38 3230.38 4816813592.16 0.0722 1.25 1;  ColumnHinge 10040408 10040402 1104040
ColumnHinge 10040107 11040103 10040101 $E 3708622002.10 721.36 28.70 84.31 3230.38 3230.38 4019664863.88 0.1159 1.25 1;  ColumnHinge 10040207 11040203 10040201 $E 4495299396.48 736.60 24.37 85.34 3230.38 3230.38 4816813592.16 0.0649 1.25 1;  ColumnHinge 10040307 11040303 10040301 $E 4495299396.48 736.60 24.37 85.34 3230.38 3230.38 4816813592.16 0.0649 1.25 1;  ColumnHinge 10040407 11040403 1004040
ColumnHinge 10050108 10050102 11050101 $E 3708622002.10 721.36 28.70 84.31 3230.38 3230.38 4019664863.88 0.1159 1.25 1;  ColumnHinge 10050208 10050202 11050201 $E 4495299396.48 736.60 24.37 85.34 3230.38 3230.38 4816813592.16 0.0649 1.25 1;  ColumnHinge 10050308 10050302 11050301 $E 4495299396.48 736.60 24.37 85.34 3230.38 3230.38 4816813592.16 0.0649 1.25 1;  ColumnHinge 10050408 10050402 1105040
ColumnHinge 10050107 11050103 10050101 $E 3708622002.10 721.36 28.70 84.31 3231.65 3231.65 4019664863.88 0.1027 1.25 1;  ColumnHinge 10050207 11050203 10050201 $E 4495299396.48 736.60 24.37 85.34 3231.65 3231.65 4816813592.16 0.0575 1.25 1;  ColumnHinge 10050307 11050303 10050301 $E 4495299396.48 736.60 24.37 85.34 3231.65 3231.65 4816813592.16 0.0575 1.25 1;  ColumnHinge 10050407 11050403 1005040
ColumnHinge 10060108 10060102 11060101 $E 2921944607.71 706.12 32.88 82.58 3231.65 3231.65 3222516135.60 0.1251 1.25 1;  ColumnHinge 10060208 10060202 11060201 $E 3708622002.10 721.36 28.70 84.31 3231.65 3231.65 4019664863.88 0.0685 1.25 1;  ColumnHinge 10060308 10060302 11060301 $E 3708622002.10 721.36 28.70 84.31 3231.65 3231.65 4019664863.88 0.0685 1.25 1;  ColumnHinge 10060408 10060402 1106040
ColumnHinge 10060107 11060103 10060101 $E 2921944607.71 706.12 32.88 82.58 3232.92 3232.92 3222516135.60 0.1091 1.25 1;  ColumnHinge 10060207 11060203 10060201 $E 3708622002.10 721.36 28.70 84.31 3232.92 3232.92 4019664863.88 0.0597 1.25 1;  ColumnHinge 10060307 11060303 10060301 $E 3708622002.10 721.36 28.70 84.31 3232.92 3232.92 4019664863.88 0.0597 1.25 1;  ColumnHinge 10060407 11060403 1006040
ColumnHinge 10070108 10070102 11070101 $E 2921944607.71 706.12 32.88 82.58 3232.92 3232.92 3222516135.60 0.1091 1.25 1;  ColumnHinge 10070208 10070202 11070201 $E 3708622002.10 721.36 28.70 84.31 3232.92 3232.92 4019664863.88 0.0597 1.25 1;  ColumnHinge 10070308 10070302 11070301 $E 3708622002.10 721.36 28.70 84.31 3232.92 3232.92 4019664863.88 0.0597 1.25 1;  ColumnHinge 10070408 10070402 1107040
ColumnHinge 10070107 11070103 10070101 $E 2921944607.71 706.12 32.88 82.58 3238.00 3238.00 3222516135.60 0.0931 1.25 1;  ColumnHinge 10070207 11070203 10070201 $E 3708622002.10 721.36 28.70 84.31 3238.00 3238.00 4019664863.88 0.0510 1.25 1;  ColumnHinge 10070307 11070303 10070301 $E 3708622002.10 721.36 28.70 84.31 3238.00 3238.00 4019664863.88 0.0510 1.25 1;  ColumnHinge 10070407 11070403 1007040
ColumnHinge 10080108 10080102 11080101 $E 1981261585.86 701.04 39.67 56.04 3238.00 3238.00 2233147146.60 0.1293 1.25 1;  ColumnHinge 10080208 10080202 11080201 $E 3271579005.22 713.74 31.79 83.63 3238.00 3238.00 3567381897.48 0.0571 1.25 1;  ColumnHinge 10080308 10080302 11080301 $E 3271579005.22 713.74 31.79 83.63 3238.00 3238.00 3567381897.48 0.0571 1.25 1;  ColumnHinge 10080408 10080402 1108040
ColumnHinge 10080107 11080103 10080101 $E 1981261585.86 701.04 39.67 56.04 3243.08 3243.08 2233147146.60 0.1071 1.25 1;  ColumnHinge 10080207 11080203 10080201 $E 3271579005.22 713.74 31.79 83.63 3243.08 3243.08 3567381897.48 0.0473 1.25 1;  ColumnHinge 10080307 11080303 10080301 $E 3271579005.22 713.74 31.79 83.63 3243.08 3243.08 3567381897.48 0.0473 1.25 1;  ColumnHinge 10080407 11080403 1008040
ColumnHinge 10090108 10090102 11090101 $E 1981261585.86 701.04 39.67 56.04 3243.08 3243.08 2233147146.60 0.1071 1.25 1;  ColumnHinge 10090208 10090202 11090201 $E 3271579005.22 713.74 31.79 83.63 3243.08 3243.08 3567381897.48 0.0473 1.25 1;  ColumnHinge 10090308 10090302 11090301 $E 3271579005.22 713.74 31.79 83.63 3243.08 3243.08 3567381897.48 0.0473 1.25 1;  ColumnHinge 10090408 10090402 1109040
ColumnHinge 10090107 11090103 10090101 $E 1981261585.86 701.04 39.67 56.04 3279.91 3279.91 2233147146.60 0.0849 1.25 1;  ColumnHinge 10090207 11090203 10090201 $E 3271579005.22 713.74 31.79 83.63 3279.91 3279.91 3567381897.48 0.0375 1.25 1;  ColumnHinge 10090307 11090303 10090301 $E 3271579005.22 713.74 31.79 83.63 3279.91 3279.91 3567381897.48 0.0375 1.25 1;  ColumnHinge 10090407 11090403 1009040
ColumnHinge 10100108 10100102 11100101 $E 1698224216.45 693.42 42.53 55.25 3279.91 3279.91 1939163218.44 0.0956 1.25 1;  ColumnHinge 10100208 10100202 11100201 $E 1981261585.86 701.04 39.67 56.04 3279.91 3279.91 2233147146.60 0.0566 1.25 1;  ColumnHinge 10100308 10100302 11100301 $E 1981261585.86 701.04 39.67 56.04 3279.91 3279.91 2233147146.60 0.0566 1.25 1;  ColumnHinge 10100408 10100402 1110040
ColumnHinge 10100107 11100103 10100101 $E 1698224216.45 693.42 42.53 55.25 3316.74 3316.74 1939163218.44 0.0706 1.25 1;  ColumnHinge 10100207 11100203 10100201 $E 1981261585.86 701.04 39.67 56.04 3316.74 3316.74 2233147146.60 0.0418 1.25 1;  ColumnHinge 10100307 11100303 10100301 $E 1981261585.86 701.04 39.67 56.04 3316.74 3316.74 2233147146.60 0.0418 1.25 1;  ColumnHinge 10100407 11100403 1010040
ColumnHinge 10110108 10110102 11110101 $E 1698224216.45 693.42 42.53 55.25 3316.74 3316.74 1939163218.44 0.0706 1.25 1;  ColumnHinge 10110208 10110202 11110201 $E 1981261585.86 701.04 39.67 56.04 3316.74 3316.74 2233147146.60 0.0418 1.25 1;  ColumnHinge 10110308 10110302 11110301 $E 1981261585.86 701.04 39.67 56.04 3316.74 3316.74 2233147146.60 0.0418 1.25 1;  ColumnHinge 10110408 10110402 1111040
# ... 4 like lines cut

# Rigid links
element truss 10020404 11020404 10020500 $A_Stiff 99;
element truss 10030404 11030404 10030500 $A_Stiff 99;
element truss 10040404 11040404 10040500 $A_Stiff 99;
element truss 10050404 11050404 10050500 $A_Stiff 99;
element truss 10060404 11060404 10060500 $A_Stiff 99;
element truss 10070404 11070404 10070500 $A_Stiff 99;
element truss 10080404 11080404 10080500 $A_Stiff 99;
element truss 10090404 11090404 10090500 $A_Stiff 99;
element truss 10100404 11100404 10100500 $A_Stiff 99;
element truss 10110404 11110404 10110500 $A_Stiff 99;
element truss 10120404 11120404 10120500 $A_Stiff 99;
element truss 10130404 11130404 10130500 $A_Stiff 99;

# Leaning column
element elasticBeamColumn 10010501 10010500 10020502 $A_Stiff $E $I_Stiff 2;
element elasticBeamColumn 10020501 10020501 10030502 $A_Stiff $E $I_Stiff 2;
element elasticBeamColumn 10030501 10030501 10040502 $A_Stiff $E $I_Stiff 2;
element elasticBeamColumn 10040501 10040501 10050502 $A_Stiff $E $I_Stiff 2;
element elasticBeamColumn 10050501 10050501 10060502 $A_Stiff $E $I_Stiff 2;
element elasticBeamColumn 10060501 10060501 10070502 $A_Stiff $E $I_Stiff 2;
element elasticBeamColumn 10070501 10070501 10080502 $A_Stiff $E $I_Stiff 2;
element elasticBeamColumn 10080501 10080501 10090502 $A_Stiff $E $I_Stiff 2;
element elasticBeamColumn 10090501 10090501 10100502 $A_Stiff $E $I_Stiff 2;
element elasticBeamColumn 10100501 10100501 10110502 $A_Stiff $E $I_Stiff 2;
element elasticBeamColumn 10110501 10110501 10120502 $A_Stiff $E $I_Stiff 2;
element elasticBeamColumn 10120501 10120501 10130502 $A_Stiff $E $I_Stiff 2;

# Leaning column hinges
Spring_Rigid 10020508 10020502 10020500;
Spring_Zero 10020507 10020500 10020501;
Spring_Rigid 10030508 10030502 10030500;
Spring_Zero 10030507 10030500 10030501;
Spring_Rigid 10040508 10040502 10040500;
Spring_Zero 10040507 10040500 10040501;
Spring_Rigid 10050508 10050502 10050500;
Spring_Zero 10050507 10050500 10050501;
Spring_Rigid 10060508 10060502 10060500;
Spring_Zero 10060507 10060500 10060501;
Spring_Rigid 10070508 10070502 10070500;
Spring_Zero 10070507 10070500 10070501;
Spring_Rigid 10080508 10080502 10080500;
Spring_Zero 10080507 10080500 10080501;
Spring_Rigid 10090508 10090502 10090500;
Spring_Zero 10090507 10090500 10090501;
Spring_Rigid 10100508 10100502 10100500;
Spring_Zero 10100507 10100500 10100501;
Spring_Rigid 10110508 10110502 10110500;
Spring_Zero 10110507 10110500 10110501;
Spring_Rigid 10120508 10120502 10120500;
Spring_Zero 10120507 10120500 10120501;
Spring_Rigid 10130508 10130502 10130500;

# --------------------------------- Constraints ----------------------------------

# Support
fix 10010100 1 1 1;
fix 10010200 1 1 1;
fix 10010300 1 1 1;
fix 10010400 1 1 1;
fix 10010500 1 1 0;

# Soil constraint
# (No soil constraint)

# Rigid diaphragm
equalDOF 11020204 11020104 1;  equalDOF 11020204 11020304 1;  equalDOF 11020204 11020404 1;
equalDOF 11030204 11030104 1;  equalDOF 11030204 11030304 1;  equalDOF 11030204 11030404 1;
equalDOF 11040204 11040104 1;  equalDOF 11040204 11040304 1;  equalDOF 11040204 11040404 1;
equalDOF 11050204 11050104 1;  equalDOF 11050204 11050304 1;  equalDOF 11050204 11050404 1;
equalDOF 11060204 11060104 1;  equalDOF 11060204 11060304 1;  equalDOF 11060204 11060404 1;
equalDOF 11070204 11070104 1;  equalDOF 11070204 11070304 1;  equalDOF 11070204 11070404 1;
equalDOF 11080204 11080104 1;  equalDOF 11080204 11080304 1;  equalDOF 11080204 11080404 1;
equalDOF 11090204 11090104 1;  equalDOF 11090204 11090304 1;  equalDOF 11090204 11090404 1;
equalDOF 11100204 11100104 1;  equalDOF 11100204 11100304 1;  equalDOF 11100204 11100404 1;
equalDOF 11110204 11110104 1;  equalDOF 11110204 11110304 1;  equalDOF 11110204 11110404 1;
equalDOF 11120204 11120104 1;  equalDOF 11120204 11120304 1;  equalDOF 11120204 11120404 1;
equalDOF 11130204 11130104 1;  equalDOF 11130204 11130304 1;  equalDOF 11130204 11130404 1;

# ---------------------------------- Recorders -----------------------------------

# Time
recorder Node -file $MainFolder/$SubFolder/Time.out -time -node 10010100 -dof 1 disp;

# Support reactions
recorder Node -file $MainFolder/$SubFolder/Support1.out -node 10010100 -dof 1 2 3 reaction;
recorder Node -file $MainFolder/$SubFolder/Support2.out -node 10010200 -dof 1 2 3 reaction;
recorder Node -file $MainFolder/$SubFolder/Support3.out -node 10010300 -dof 1 2 3 reaction;
recorder Node -file $MainFolder/$SubFolder/Support4.out -node 10010400 -dof 1 2 3 reaction;
recorder Node -file $MainFolder/$SubFolder/Support5.out -node 10010500 -dof 1 2 3 reaction;

# Story drift ratio
recorder Drift -file $MainFolder/$SubFolder/SDR1.out -iNode 10010100 -jNode 11020204 -dof 1 -perpDirn 2;
recorder Drift -file $MainFolder/$SubFolder/SDR2.out -iNode 11020204 -jNode 11030204 -dof 1 -perpDirn 2;
recorder Drift -file $MainFolder/$SubFolder/SDR3.out -iNode 11030204 -jNode 11040204 -dof 1 -perpDirn 2;
recorder Drift -file $MainFolder/$SubFolder/SDR4.out -iNode 11040204 -jNode 11050204 -dof 1 -perpDirn 2;
recorder Drift -file $MainFolder/$SubFolder/SDR5.out -iNode 11050204 -jNode 11060204 -dof 1 -perpDirn 2;
recorder Drift -file $MainFolder/$SubFolder/SDR6.out -iNode 11060204 -jNode 11070204 -dof 1 -perpDirn 2;
recorder Drift -file $MainFolder/$SubFolder/SDR7.out -iNode 11070204 -jNode 11080204 -dof 1 -perpDirn 2;
recorder Drift -file $MainFolder/$SubFolder/SDR8.out -iNode 11080204 -jNode 11090204 -dof 1 -perpDirn 2;
recorder Drift -file $MainFolder/$SubFolder/SDR9.out -iNode 11090204 -jNode 11100204 -dof 1 -perpDirn 2;
recorder Drift -file $MainFolder/$SubFolder/SDR10.out -iNode 11100204 -jNode 11110204 -dof 1 -perpDirn 2;
recorder Drift -file $MainFolder/$SubFolder/SDR11.out -iNode 11110204 -jNode 11120204 -dof 1 -perpDirn 2;
recorder Drift -file $MainFolder/$SubFolder/SDR12.out -iNode 11120204 -jNode 11130204 -dof 1 -perpDirn 2;
recorder Drift -file $MainFolder/$SubFolder/SDR_Roof.out -iNode 10010100 -jNode 11130204 -dof 1 -perpDirn 2;

# Floor acceleration
recorder Node -file $MainFolder/$SubFolder/RFA1.out -node 10010100 -dof 1 accel;
recorder Node -file $MainFolder/$SubFolder/RFA2.out -node 11020204 -dof 1 accel;
recorder Node -file $MainFolder/$SubFolder/RFA3.out -node 11030204 -dof 1 accel;
recorder Node -file $MainFolder/$SubFolder/RFA4.out -node 11040204 -dof 1 accel;
recorder Node -file $MainFolder/$SubFolder/RFA5.out -node 11050204 -dof 1 accel;
recorder Node -file $MainFolder/$SubFolder/RFA6.out -node 11060204 -dof 1 accel;
recorder Node -file $MainFolder/$SubFolder/RFA7.out -node 11070204 -dof 1 accel;
recorder Node -file $MainFolder/$SubFolder/RFA8.out -node 11080204 -dof 1 accel;
recorder Node -file $MainFolder/$SubFolder/RFA9.out -node 11090204 -dof 1 accel;
recorder Node -file $MainFolder/$SubFolder/RFA10.out -node 11100204 -dof 1 accel;
recorder Node -file $MainFolder/$SubFolder/RFA11.out -node 11110204 -dof 1 accel;
recorder Node -file $MainFolder/$SubFolder/RFA12.out -node 11120204 -dof 1 accel;
recorder Node -file $MainFolder/$SubFolder/RFA13.out -node 11130204 -dof 1 accel;

# Floor velocity
recorder Node -file $MainFolder/$SubFolder/RFV1.out -node 10010100 -dof 1 vel;
recorder Node -file $MainFolder/$SubFolder/RFV2.out -node 11020204 -dof 1 vel;
recorder Node -file $MainFolder/$SubFolder/RFV3.out -node 11030204 -dof 1 vel;
recorder Node -file $MainFolder/$SubFolder/RFV4.out -node 11040204 -dof 1 vel;
recorder Node -file $MainFolder/$SubFolder/RFV5.out -node 11050204 -dof 1 vel;
recorder Node -file $MainFolder/$SubFolder/RFV6.out -node 11060204 -dof 1 vel;
recorder Node -file $MainFolder/$SubFolder/RFV7.out -node 11070204 -dof 1 vel;
recorder Node -file $MainFolder/$SubFolder/RFV8.out -node 11080204 -dof 1 vel;
recorder Node -file $MainFolder/$SubFolder/RFV9.out -node 11090204 -dof 1 vel;
recorder Node -file $MainFolder/$SubFolder/RFV10.out -node 11100204 -dof 1 vel;
recorder Node -file $MainFolder/$SubFolder/RFV11.out -node 11110204 -dof 1 vel;
recorder Node -file $MainFolder/$SubFolder/RFV12.out -node 11120204 -dof 1 vel;
recorder Node -file $MainFolder/$SubFolder/RFV13.out -node 11130204 -dof 1 vel;

# Floor displacement
recorder Node -file $MainFolder/$SubFolder/Disp1.out -node 10010100 -dof 1 disp;
recorder Node -file $MainFolder/$SubFolder/Disp2.out -node 11020204 -dof 1 disp;
recorder Node -file $MainFolder/$SubFolder/Disp3.out -node 11030204 -dof 1 disp;
recorder Node -file $MainFolder/$SubFolder/Disp4.out -node 11040204 -dof 1 disp;
recorder Node -file $MainFolder/$SubFolder/Disp5.out -node 11050204 -dof 1 disp;
recorder Node -file $MainFolder/$SubFolder/Disp6.out -node 11060204 -dof 1 disp;
recorder Node -file $MainFolder/$SubFolder/Disp7.out -node 11070204 -dof 1 disp;
recorder Node -file $MainFolder/$SubFolder/Disp8.out -node 11080204 -dof 1 disp;
recorder Node -file $MainFolder/$SubFolder/Disp9.out -node 11090204 -dof 1 disp;
recorder Node -file $MainFolder/$SubFolder/Disp10.out -node 11100204 -dof 1 disp;
recorder Node -file $MainFolder/$SubFolder/Disp11.out -node 11110204 -dof 1 disp;
recorder Node -file $MainFolder/$SubFolder/Disp12.out -node 11120204 -dof 1 disp;
recorder Node -file $MainFolder/$SubFolder/Disp13.out -node 11130204 -dof 1 disp;

# Shear forces
recorder Element -file $MainFolder/$SubFolder/Shear1_1.out -ele 10010101 force;  recorder Element -file $MainFolder/$SubFolder/Shear1_2.out -ele 10010201 force;  recorder Element -file $MainFolder/$SubFolder/Shear1_3.out -ele 10010301 force;  recorder Element -file $MainFolder/$SubFolder/Shear1_4.out -ele 10010401 force;
recorder Element -file $MainFolder/$SubFolder/Shear2_1.out -ele 10020101 force;  recorder Element -file $MainFolder/$SubFolder/Shear2_2.out -ele 10020201 force;  recorder Element -file $MainFolder/$SubFolder/Shear2_3.out -ele 10020301 force;  recorder Element -file $MainFolder/$SubFolder/Shear2_4.out -ele 10020401 force;
recorder Element -file $MainFolder/$SubFolder/Shear3_1.out -ele 10030102 force;  recorder Element -file $MainFolder/$SubFolder/Shear3_2.out -ele 10030202 force;  recorder Element -file $MainFolder/$SubFolder/Shear3_3.out -ele 10030302 force;  recorder Element -file $MainFolder/$SubFolder/Shear3_4.out -ele 10030402 force;
recorder Element -file $MainFolder/$SubFolder/Shear4_1.out -ele 10040101 force;  recorder Element -file $MainFolder/$SubFolder/Shear4_2.out -ele 10040201 force;  recorder Element -file $MainFolder/$SubFolder/Shear4_3.out -ele 10040301 force;  recorder Element -file $MainFolder/$SubFolder/Shear4_4.out -ele 10040401 force;
recorder Element -file $MainFolder/$SubFolder/Shear5_1.out -ele 10050102 force;  recorder Element -file $MainFolder/$SubFolder/Shear5_2.out -ele 10050202 force;  recorder Element -file $MainFolder/$SubFolder/Shear5_3.out -ele 10050302 force;  recorder Element -file $MainFolder/$SubFolder/Shear5_4.out -ele 10050402 force;
recorder Element -file $MainFolder/$SubFolder/Shear6_1.out -ele 10060101 force;  recorder Element -file $MainFolder/$SubFolder/Shear6_2.out -ele 10060201 force;  recorder Element -file $MainFolder/$SubFolder/Shear6_3.out -ele 10060301 force;  recorder Element -file $MainFolder/$SubFolder/Shear6_4.out -ele 10060401 force;
recorder Element -file $MainFolder/$SubFolder/Shear7_1.out -ele 10070102 force;  recorder Element -file $MainFolder/$SubFolder/Shear7_2.out -ele 10070202 force;  recorder Element -file $MainFolder/$SubFolder/Shear7_3.out -ele 10070302 force;  recorder Element -file $MainFolder/$SubFolder/Shear7_4.out -ele 10070402 force;
recorder Element -file $MainFolder/$SubFolder/Shear8_1.out -ele 10080101 force;  recorder Element -file $MainFolder/$SubFolder/Shear8_2.out -ele 10080201 force;  recorder Element -file $MainFolder/$SubFolder/Shear8_3.out -ele 10080301 force;  recorder Element -file $MainFolder/$SubFolder/Shear8_4.out -ele 10080401 force;
recorder Element -file $MainFolder/$SubFolder/Shear9_1.out -ele 10090102 force;  recorder Element -file $MainFolder/$SubFolder/Shear9_2.out -ele 10090202 force;  recorder Element -file $MainFolder/$SubFolder/Shear9_3.out -ele 10090302 force;  recorder Element -file $MainFolder/$SubFolder/Shear9_4.out -ele 10090402 force;
recorder Element -file $MainFolder/$SubFolder/Shear10_1.out -ele 10100101 force;  recorder Element -file $MainFolder/$SubFolder/Shear10_2.out -ele 10100201 force;  recorder Element -file $MainFolder/$SubFolder/Shear10_3.out -ele 10100301 force;  recorder Element -file $MainFolder/$SubFolder/Shear10_4.out -ele 10100401 force;
recorder Element -file $MainFolder/$SubFolder/Shear11_1.out -ele 10110102 force;  recorder Element -file $MainFolder/$SubFolder/Shear11_2.out -ele 10110202 force;  recorder Element -file $MainFolder/$SubFolder/Shear11_3.out -ele 10110302 force;  recorder Element -file $MainFolder/$SubFolder/Shear11_4.out -ele 10110402 force;
recorder Element -file $MainFolder/$SubFolder/Shear12_1.out -ele 10120101 force;  recorder Element -file $MainFolder/$SubFolder/Shear12_2.out -ele 10120201 force;  recorder Element -file $MainFolder/$SubFolder/Shear12_3.out -ele 10120301 force;  recorder Element -file $MainFolder/$SubFolder/Shear12_4.out -ele 10120401 force;

# Column springs
recorder Element -file $MainFolder/$SubFolder/ColSpring1_1T.out -ele 10010107 material 3 stressStrain;  recorder Element -file $MainFolder/$SubFolder/ColSpring1_2T.out -ele 10010207 material 3 stressStrain;  recorder Element -file $MainFolder/$SubFolder/ColSpring1_3T.out -ele 10010307 material 3 stressStrain;  recorder Element -file $MainFolder/$SubFolder/ColSpring1_4T.out -ele 10010407 material 3
recorder Element -file $MainFolder/$SubFolder/ColSpring2_1B.out -ele 10020108 material 3 stressStrain;  recorder Element -file $MainFolder/$SubFolder/ColSpring2_2B.out -ele 10020208 material 3 stressStrain;  recorder Element -file $MainFolder/$SubFolder/ColSpring2_3B.out -ele 10020308 material 3 stressStrain;  recorder Element -file $MainFolder/$SubFolder/ColSpring2_4B.out -ele 10020408 material 3
recorder Element -file $MainFolder/$SubFolder/ColSpring2_1T.out -ele 10020107 material 3 stressStrain;  recorder Element -file $MainFolder/$SubFolder/ColSpring2_2T.out -ele 10020207 material 3 stressStrain;  recorder Element -file $MainFolder/$SubFolder/ColSpring2_3T.out -ele 10020307 material 3 stressStrain;  recorder Element -file $MainFolder/$SubFolder/ColSpring2_4T.out -ele 10020407 material 3
recorder Element -file $MainFolder/$SubFolder/ColSpring3_1B.out -ele 10030108 material 3 stressStrain;  recorder Element -file $MainFolder/$SubFolder/ColSpring3_2B.out -ele 10030208 material 3 stressStrain;  recorder Element -file $MainFolder/$SubFolder/ColSpring3_3B.out -ele 10030308 material 3 stressStrain;  recorder Element -file $MainFolder/$SubFolder/ColSpring3_4B.out -ele 10030408 material 3
recorder Element -file $MainFolder/$SubFolder/ColSpring3_1T.out -ele 10030107 material 3 stressStrain;  recorder Element -file $MainFolder/$SubFolder/ColSpring3_2T.out -ele 10030207 material 3 stressStrain;  recorder Element -file $MainFolder/$SubFolder/ColSpring3_3T.out -ele 10030307 material 3 stressStrain;  recorder Element -file $MainFolder/$SubFolder/ColSpring3_4T.out -ele 10030407 material 3
recorder Element -file $MainFolder/$SubFolder/ColSpring4_1B.out -ele 10040108 material 3 stressStrain;  recorder Element -file $MainFolder/$SubFolder/ColSpring4_2B.out -ele 10040208 material 3 stressStrain;  recorder Element -file $MainFolder/$SubFolder/ColSpring4_3B.out -ele 10040308 material 3 stressStrain;  recorder Element -file $MainFolder/$SubFolder/ColSpring4_4B.out -ele 10040408 material 3
recorder Element -file $MainFolder/$SubFolder/ColSpring4_1T.out -ele 10040107 material 3 stressStrain;  recorder Element -file $MainFolder/$SubFolder/ColSpring4_2T.out -ele 10040207 material 3 stressStrain;  recorder Element -file $MainFolder/$SubFolder/ColSpring4_3T.out -ele 10040307 material 3 stressStrain;  recorder Element -file $MainFolder/$SubFolder/ColSpring4_4T.out -ele 10040407 material 3
recorder Element -file $MainFolder/$SubFolder/ColSpring5_1B.out -ele 10050108 material 3 stressStrain;  recorder Element -file $MainFolder/$SubFolder/ColSpring5_2B.out -ele 10050208 material 3 stressStrain;  recorder Element -file $MainFolder/$SubFolder/ColSpring5_3B.out -ele 10050308 material 3 stressStrain;  recorder Element -file $MainFolder/$SubFolder/ColSpring5_4B.out -ele 10050408 material 3
recorder Element -file $MainFolder/$SubFolder/ColSpring5_1T.out -ele 10050107 material 3 stressStrain;  recorder Element -file $MainFolder/$SubFolder/ColSpring5_2T.out -ele 10050207 material 3 stressStrain;  recorder Element -file $MainFolder/$SubFolder/ColSpring5_3T.out -ele 10050307 material 3 stressStrain;  recorder Element -file $MainFolder/$SubFolder/ColSpring5_4T.out -ele 10050407 material 3
recorder Element -file $MainFolder/$SubFolder/ColSpring6_1B.out -ele 10060108 material 3 stressStrain;  recorder Element -file $MainFolder/$SubFolder/ColSpring6_2B.out -ele 10060208 material 3 stressStrain;  recorder Element -file $MainFolder/$SubFolder/ColSpring6_3B.out -ele 10060308 material 3 stressStrain;  recorder Element -file $MainFolder/$SubFolder/ColSpring6_4B.out -ele 10060408 material 3
recorder Element -file $MainFolder/$SubFolder/ColSpring6_1T.out -ele 10060107 material 3 stressStrain;  recorder Element -file $MainFolder/$SubFolder/ColSpring6_2T.out -ele 10060207 material 3 stressStrain;  recorder Element -file $MainFolder/$SubFolder/ColSpring6_3T.out -ele 10060307 material 3 stressStrain;  recorder Element -file $MainFolder/$SubFolder/ColSpring6_4T.out -ele 10060407 material 3
recorder Element -file $MainFolder/$SubFolder/ColSpring7_1B.out -ele 10070108 material 3 stressStrain;  recorder Element -file $MainFolder/$SubFolder/ColSpring7_2B.out -ele 10070208 material 3 stressStrain;  recorder Element -file $MainFolder/$SubFolder/ColSpring7_3B.out -ele 10070308 material 3 stressStrain;  recorder Element -file $MainFolder/$SubFolder/ColSpring7_4B.out -ele 10070408 material 3
recorder Element -file $MainFolder/$SubFolder/ColSpring7_1T.out -ele 10070107 material 3 stressStrain;  recorder Element -file $MainFolder/$SubFolder/ColSpring7_2T.out -ele 10070207 material 3 stressStrain;  recorder Element -file $MainFolder/$SubFolder/ColSpring7_3T.out -ele 10070307 material 3 stressStrain;  recorder Element -file $MainFolder/$SubFolder/ColSpring7_4T.out -ele 10070407 material 3
recorder Element -file $MainFolder/$SubFolder/ColSpring8_1B.out -ele 10080108 material 3 stressStrain;  recorder Element -file $MainFolder/$SubFolder/ColSpring8_2B.out -ele 10080208 material 3 stressStrain;  recorder Element -file $MainFolder/$SubFolder/ColSpring8_3B.out -ele 10080308 material 3 stressStrain;  recorder Element -file $MainFolder/$SubFolder/ColSpring8_4B.out -ele 10080408 material 3
recorder Element -file $MainFolder/$SubFolder/ColSpring8_1T.out -ele 10080107 material 3 stressStrain;  recorder Element -file $MainFolder/$SubFolder/ColSpring8_2T.out -ele 10080207 material 3 stressStrain;  recorder Element -file $MainFolder/$SubFolder/ColSpring8_3T.out -ele 10080307 material 3 stressStrain;  recorder Element -file $MainFolder/$SubFolder/ColSpring8_4T.out -ele 10080407 material 3
recorder Element -file $MainFolder/$SubFolder/ColSpring9_1B.out -ele 10090108 material 3 stressStrain;  recorder Element -file $MainFolder/$SubFolder/ColSpring9_2B.out -ele 10090208 material 3 stressStrain;  recorder Element -file $MainFolder/$SubFolder/ColSpring9_3B.out -ele 10090308 material 3 stressStrain;  recorder Element -file $MainFolder/$SubFolder/ColSpring9_4B.out -ele 10090408 material 3
recorder Element -file $MainFolder/$SubFolder/ColSpring9_1T.out -ele 10090107 material 3 stressStrain;  recorder Element -file $MainFolder/$SubFolder/ColSpring9_2T.out -ele 10090207 material 3 stressStrain;  recorder Element -file $MainFolder/$SubFolder/ColSpring9_3T.out -ele 10090307 material 3 stressStrain;  recorder Element -file $MainFolder/$SubFolder/ColSpring9_4T.out -ele 10090407 material 3
recorder Element -file $MainFolder/$SubFolder/ColSpring10_1B.out -ele 10100108 material 3 stressStrain;  recorder Element -file $MainFolder/$SubFolder/ColSpring10_2B.out -ele 10100208 material 3 stressStrain;  recorder Element -file $MainFolder/$SubFolder/ColSpring10_3B.out -ele 10100308 material 3 stressStrain;  recorder Element -file $MainFolder/$SubFolder/ColSpring10_4B.out -ele 10100408 materi
recorder Element -file $MainFolder/$SubFolder/ColSpring10_1T.out -ele 10100107 material 3 stressStrain;  recorder Element -file $MainFolder/$SubFolder/ColSpring10_2T.out -ele 10100207 material 3 stressStrain;  recorder Element -file $MainFolder/$SubFolder/ColSpring10_3T.out -ele 10100307 material 3 stressStrain;  recorder Element -file $MainFolder/$SubFolder/ColSpring10_4T.out -ele 10100407 materi
recorder Element -file $MainFolder/$SubFolder/ColSpring11_1B.out -ele 10110108 material 3 stressStrain;  recorder Element -file $MainFolder/$SubFolder/ColSpring11_2B.out -ele 10110208 material 3 stressStrain;  recorder Element -file $MainFolder/$SubFolder/ColSpring11_3B.out -ele 10110308 material 3 stressStrain;  recorder Element -file $MainFolder/$SubFolder/ColSpring11_4B.out -ele 10110408 materi
recorder Element -file $MainFolder/$SubFolder/ColSpring11_1T.out -ele 10110107 material 3 stressStrain;  recorder Element -file $MainFolder/$SubFolder/ColSpring11_2T.out -ele 10110207 material 3 stressStrain;  recorder Element -file $MainFolder/$SubFolder/ColSpring11_3T.out -ele 10110307 material 3 stressStrain;  recorder Element -file $MainFolder/$SubFolder/ColSpring11_4T.out -ele 10110407 materi
recorder Element -file $MainFolder/$SubFolder/ColSpring12_1B.out -ele 10120108 material 3 stressStrain;  recorder Element -file $MainFolder/$SubFolder/ColSpring12_2B.out -ele 10120208 material 3 stressStrain;  recorder Element -file $MainFolder/$SubFolder/ColSpring12_3B.out -ele 10120308 material 3 stressStrain;  recorder Element -file $MainFolder/$SubFolder/ColSpring12_4B.out -ele 10120408 materi
recorder Element -file $MainFolder/$SubFolder/ColSpring12_1T.out -ele 10120107 material 3 stressStrain;  recorder Element -file $MainFolder/$SubFolder/ColSpring12_2T.out -ele 10120207 material 3 stressStrain;  recorder Element -file $MainFolder/$SubFolder/ColSpring12_3T.out -ele 10120307 material 3 stressStrain;  recorder Element -file $MainFolder/$SubFolder/ColSpring12_4T.out -ele 10120407 materi
recorder Element -file $MainFolder/$SubFolder/ColSpring13_1B.out -ele 10130108 material 3 stressStrain;  recorder Element -file $MainFolder/$SubFolder/ColSpring13_2B.out -ele 10130208 material 3 stressStrain;  recorder Element -file $MainFolder/$SubFolder/ColSpring13_3B.out -ele 10130308 material 3 stressStrain;  recorder Element -file $MainFolder/$SubFolder/ColSpring13_4B.out -ele 10130408 materi

# Beam springs
recorder Element -file $MainFolder/$SubFolder/BeamSpring2_1R.out -ele 10020109 material 3 stressStrain;  recorder Element -file $MainFolder/$SubFolder/BeamSpring2_2L.out -ele 10020210 material 3 stressStrain;  recorder Element -file $MainFolder/$SubFolder/BeamSpring2_2R.out -ele 10020209 material 3 stressStrain;  recorder Element -file $MainFolder/$SubFolder/BeamSpring2_3L.out -ele 10020310 materi
recorder Element -file $MainFolder/$SubFolder/BeamSpring3_1R.out -ele 10030109 material 3 stressStrain;  recorder Element -file $MainFolder/$SubFolder/BeamSpring3_2L.out -ele 10030210 material 3 stressStrain;  recorder Element -file $MainFolder/$SubFolder/BeamSpring3_2R.out -ele 10030209 material 3 stressStrain;  recorder Element -file $MainFolder/$SubFolder/BeamSpring3_3L.out -ele 10030310 materi
recorder Element -file $MainFolder/$SubFolder/BeamSpring4_1R.out -ele 10040109 material 3 stressStrain;  recorder Element -file $MainFolder/$SubFolder/BeamSpring4_2L.out -ele 10040210 material 3 stressStrain;  recorder Element -file $MainFolder/$SubFolder/BeamSpring4_2R.out -ele 10040209 material 3 stressStrain;  recorder Element -file $MainFolder/$SubFolder/BeamSpring4_3L.out -ele 10040310 materi
recorder Element -file $MainFolder/$SubFolder/BeamSpring5_1R.out -ele 10050109 material 3 stressStrain;  recorder Element -file $MainFolder/$SubFolder/BeamSpring5_2L.out -ele 10050210 material 3 stressStrain;  recorder Element -file $MainFolder/$SubFolder/BeamSpring5_2R.out -ele 10050209 material 3 stressStrain;  recorder Element -file $MainFolder/$SubFolder/BeamSpring5_3L.out -ele 10050310 materi
recorder Element -file $MainFolder/$SubFolder/BeamSpring6_1R.out -ele 10060109 material 3 stressStrain;  recorder Element -file $MainFolder/$SubFolder/BeamSpring6_2L.out -ele 10060210 material 3 stressStrain;  recorder Element -file $MainFolder/$SubFolder/BeamSpring6_2R.out -ele 10060209 material 3 stressStrain;  recorder Element -file $MainFolder/$SubFolder/BeamSpring6_3L.out -ele 10060310 materi
recorder Element -file $MainFolder/$SubFolder/BeamSpring7_1R.out -ele 10070109 material 3 stressStrain;  recorder Element -file $MainFolder/$SubFolder/BeamSpring7_2L.out -ele 10070210 material 3 stressStrain;  recorder Element -file $MainFolder/$SubFolder/BeamSpring7_2R.out -ele 10070209 material 3 stressStrain;  recorder Element -file $MainFolder/$SubFolder/BeamSpring7_3L.out -ele 10070310 materi
recorder Element -file $MainFolder/$SubFolder/BeamSpring8_1R.out -ele 10080109 material 3 stressStrain;  recorder Element -file $MainFolder/$SubFolder/BeamSpring8_2L.out -ele 10080210 material 3 stressStrain;  recorder Element -file $MainFolder/$SubFolder/BeamSpring8_2R.out -ele 10080209 material 3 stressStrain;  recorder Element -file $MainFolder/$SubFolder/BeamSpring8_3L.out -ele 10080310 materi
recorder Element -file $MainFolder/$SubFolder/BeamSpring9_1R.out -ele 10090109 material 3 stressStrain;  recorder Element -file $MainFolder/$SubFolder/BeamSpring9_2L.out -ele 10090210 material 3 stressStrain;  recorder Element -file $MainFolder/$SubFolder/BeamSpring9_2R.out -ele 10090209 material 3 stressStrain;  recorder Element -file $MainFolder/$SubFolder/BeamSpring9_3L.out -ele 10090310 materi
recorder Element -file $MainFolder/$SubFolder/BeamSpring10_1R.out -ele 10100109 material 3 stressStrain;  recorder Element -file $MainFolder/$SubFolder/BeamSpring10_2L.out -ele 10100210 material 3 stressStrain;  recorder Element -file $MainFolder/$SubFolder/BeamSpring10_2R.out -ele 10100209 material 3 stressStrain;  recorder Element -file $MainFolder/$SubFolder/BeamSpring10_3L.out -ele 10100310 ma
recorder Element -file $MainFolder/$SubFolder/BeamSpring11_1R.out -ele 10110109 material 3 stressStrain;  recorder Element -file $MainFolder/$SubFolder/BeamSpring11_2L.out -ele 10110210 material 3 stressStrain;  recorder Element -file $MainFolder/$SubFolder/BeamSpring11_2R.out -ele 10110209 material 3 stressStrain;  recorder Element -file $MainFolder/$SubFolder/BeamSpring11_3L.out -ele 10110310 ma
recorder Element -file $MainFolder/$SubFolder/BeamSpring12_1R.out -ele 10120109 material 3 stressStrain;  recorder Element -file $MainFolder/$SubFolder/BeamSpring12_2L.out -ele 10120210 material 3 stressStrain;  recorder Element -file $MainFolder/$SubFolder/BeamSpring12_2R.out -ele 10120209 material 3 stressStrain;  recorder Element -file $MainFolder/$SubFolder/BeamSpring12_3L.out -ele 10120310 ma
recorder Element -file $MainFolder/$SubFolder/BeamSpring13_1R.out -ele 10130109 material 3 stressStrain;  recorder Element -file $MainFolder/$SubFolder/BeamSpring13_2L.out -ele 10130210 material 3 stressStrain;  recorder Element -file $MainFolder/$SubFolder/BeamSpring13_2R.out -ele 10130209 material 3 stressStrain;  recorder Element -file $MainFolder/$SubFolder/BeamSpring13_3L.out -ele 10130310 ma

# Panel zone springs (if any)
recorder Element -file $MainFolder/$SubFolder/PZ2_1.out -ele 11020100 material 1 stressStrain;  recorder Element -file $MainFolder/$SubFolder/PZ2_2.out -ele 11020200 material 1 stressStrain;  recorder Element -file $MainFolder/$SubFolder/PZ2_3.out -ele 11020300 material 1 stressStrain;  recorder Element -file $MainFolder/$SubFolder/PZ2_4.out -ele 11020400 material 1 stressStrain;
recorder Element -file $MainFolder/$SubFolder/PZ3_1.out -ele 11030100 material 1 stressStrain;  recorder Element -file $MainFolder/$SubFolder/PZ3_2.out -ele 11030200 material 1 stressStrain;  recorder Element -file $MainFolder/$SubFolder/PZ3_3.out -ele 11030300 material 1 stressStrain;  recorder Element -file $MainFolder/$SubFolder/PZ3_4.out -ele 11030400 material 1 stressStrain;
recorder Element -file $MainFolder/$SubFolder/PZ4_1.out -ele 11040100 material 1 stressStrain;  recorder Element -file $MainFolder/$SubFolder/PZ4_2.out -ele 11040200 material 1 stressStrain;  recorder Element -file $MainFolder/$SubFolder/PZ4_3.out -ele 11040300 material 1 stressStrain;  recorder Element -file $MainFolder/$SubFolder/PZ4_4.out -ele 11040400 material 1 stressStrain;
recorder Element -file $MainFolder/$SubFolder/PZ5_1.out -ele 11050100 material 1 stressStrain;  recorder Element -file $MainFolder/$SubFolder/PZ5_2.out -ele 11050200 material 1 stressStrain;  recorder Element -file $MainFolder/$SubFolder/PZ5_3.out -ele 11050300 material 1 stressStrain;  recorder Element -file $MainFolder/$SubFolder/PZ5_4.out -ele 11050400 material 1 stressStrain;
recorder Element -file $MainFolder/$SubFolder/PZ6_1.out -ele 11060100 material 1 stressStrain;  recorder Element -file $MainFolder/$SubFolder/PZ6_2.out -ele 11060200 material 1 stressStrain;  recorder Element -file $MainFolder/$SubFolder/PZ6_3.out -ele 11060300 material 1 stressStrain;  recorder Element -file $MainFolder/$SubFolder/PZ6_4.out -ele 11060400 material 1 stressStrain;
recorder Element -file $MainFolder/$SubFolder/PZ7_1.out -ele 11070100 material 1 stressStrain;  recorder Element -file $MainFolder/$SubFolder/PZ7_2.out -ele 11070200 material 1 stressStrain;  recorder Element -file $MainFolder/$SubFolder/PZ7_3.out -ele 11070300 material 1 stressStrain;  recorder Element -file $MainFolder/$SubFolder/PZ7_4.out -ele 11070400 material 1 stressStrain;
recorder Element -file $MainFolder/$SubFolder/PZ8_1.out -ele 11080100 material 1 stressStrain;  recorder Element -file $MainFolder/$SubFolder/PZ8_2.out -ele 11080200 material 1 stressStrain;  recorder Element -file $MainFolder/$SubFolder/PZ8_3.out -ele 11080300 material 1 stressStrain;  recorder Element -file $MainFolder/$SubFolder/PZ8_4.out -ele 11080400 material 1 stressStrain;
recorder Element -file $MainFolder/$SubFolder/PZ9_1.out -ele 11090100 material 1 stressStrain;  recorder Element -file $MainFolder/$SubFolder/PZ9_2.out -ele 11090200 material 1 stressStrain;  recorder Element -file $MainFolder/$SubFolder/PZ9_3.out -ele 11090300 material 1 stressStrain;  recorder Element -file $MainFolder/$SubFolder/PZ9_4.out -ele 11090400 material 1 stressStrain;
recorder Element -file $MainFolder/$SubFolder/PZ10_1.out -ele 11100100 material 1 stressStrain;  recorder Element -file $MainFolder/$SubFolder/PZ10_2.out -ele 11100200 material 1 stressStrain;  recorder Element -file $MainFolder/$SubFolder/PZ10_3.out -ele 11100300 material 1 stressStrain;  recorder Element -file $MainFolder/$SubFolder/PZ10_4.out -ele 11100400 material 1 stressStrain;
recorder Element -file $MainFolder/$SubFolder/PZ11_1.out -ele 11110100 material 1 stressStrain;  recorder Element -file $MainFolder/$SubFolder/PZ11_2.out -ele 11110200 material 1 stressStrain;  recorder Element -file $MainFolder/$SubFolder/PZ11_3.out -ele 11110300 material 1 stressStrain;  recorder Element -file $MainFolder/$SubFolder/PZ11_4.out -ele 11110400 material 1 stressStrain;
recorder Element -file $MainFolder/$SubFolder/PZ12_1.out -ele 11120100 material 1 stressStrain;  recorder Element -file $MainFolder/$SubFolder/PZ12_2.out -ele 11120200 material 1 stressStrain;  recorder Element -file $MainFolder/$SubFolder/PZ12_3.out -ele 11120300 material 1 stressStrain;  recorder Element -file $MainFolder/$SubFolder/PZ12_4.out -ele 11120400 material 1 stressStrain;
recorder Element -file $MainFolder/$SubFolder/PZ13_1.out -ele 11130100 material 1 stressStrain;  recorder Element -file $MainFolder/$SubFolder/PZ13_2.out -ele 11130200 material 1 stressStrain;  recorder Element -file $MainFolder/$SubFolder/PZ13_3.out -ele 11130300 material 1 stressStrain;  recorder Element -file $MainFolder/$SubFolder/PZ13_4.out -ele 11130400 material 1 stressStrain;

# MPCO recorder
if {$MPCO == 1} {
    recorder mpco $MainFolder$SubFolder/result.mpco -N displacement acceleration modesOfVibration -E material.stress material.strain;
}

# ------------------------------------- Mass -------------------------------------

# Moment frame mass
set g 9810.0;
mass 11020104 16.839 1.e-9 1.e-9;  mass 11020204 11.226 1.e-9 1.e-9;  mass 11020304 11.226 1.e-9 1.e-9;  mass 11020404 16.839 1.e-9 1.e-9;
mass 11030104 16.727 1.e-9 1.e-9;  mass 11030204 11.151 1.e-9 1.e-9;  mass 11030304 11.151 1.e-9 1.e-9;  mass 11030404 16.727 1.e-9 1.e-9;
mass 11040104 16.727 1.e-9 1.e-9;  mass 11040204 11.151 1.e-9 1.e-9;  mass 11040304 11.151 1.e-9 1.e-9;  mass 11040404 16.727 1.e-9 1.e-9;
mass 11050104 16.727 1.e-9 1.e-9;  mass 11050204 11.151 1.e-9 1.e-9;  mass 11050304 11.151 1.e-9 1.e-9;  mass 11050404 16.727 1.e-9 1.e-9;
mass 11060104 16.727 1.e-9 1.e-9;  mass 11060204 11.151 1.e-9 1.e-9;  mass 11060304 11.151 1.e-9 1.e-9;  mass 11060404 16.727 1.e-9 1.e-9;
mass 11070104 16.727 1.e-9 1.e-9;  mass 11070204 11.151 1.e-9 1.e-9;  mass 11070304 11.151 1.e-9 1.e-9;  mass 11070404 16.727 1.e-9 1.e-9;
mass 11080104 16.727 1.e-9 1.e-9;  mass 11080204 11.151 1.e-9 1.e-9;  mass 11080304 11.151 1.e-9 1.e-9;  mass 11080404 16.727 1.e-9 1.e-9;
mass 11090104 16.727 1.e-9 1.e-9;  mass 11090204 11.151 1.e-9 1.e-9;  mass 11090304 11.151 1.e-9 1.e-9;  mass 11090404 16.727 1.e-9 1.e-9;
mass 11100104 16.727 1.e-9 1.e-9;  mass 11100204 11.151 1.e-9 1.e-9;  mass 11100304 11.151 1.e-9 1.e-9;  mass 11100404 16.727 1.e-9 1.e-9;
mass 11110104 16.727 1.e-9 1.e-9;  mass 11110204 11.151 1.e-9 1.e-9;  mass 11110304 11.151 1.e-9 1.e-9;  mass 11110404 16.727 1.e-9 1.e-9;
mass 11120104 16.727 1.e-9 1.e-9;  mass 11120204 11.151 1.e-9 1.e-9;  mass 11120304 11.151 1.e-9 1.e-9;  mass 11120404 16.727 1.e-9 1.e-9;
mass 11130104 14.486 1.e-9 1.e-9;  mass 11130204 9.657 1.e-9 1.e-9;  mass 11130304 9.657 1.e-9 1.e-9;  mass 11130404 14.486 1.e-9 1.e-9;

# Leaning column mass
mass 10020500 266.340 1.e-9 1.e-9;
mass 10030500 265.817 1.e-9 1.e-9;
mass 10040500 265.817 1.e-9 1.e-9;
mass 10050500 265.817 1.e-9 1.e-9;
mass 10060500 265.817 1.e-9 1.e-9;
mass 10070500 265.817 1.e-9 1.e-9;
mass 10080500 265.817 1.e-9 1.e-9;
mass 10090500 265.817 1.e-9 1.e-9;
mass 10100500 265.817 1.e-9 1.e-9;
mass 10110500 265.817 1.e-9 1.e-9;
mass 10120500 265.817 1.e-9 1.e-9;
mass 10130500 255.360 1.e-9 1.e-9;


# -------------------------------- Eigen analysis --------------------------------

set pi [expr 2.0*asin(1.0)];
set nEigen 12
set lambdaN [eigen [expr $nEigen]];
set lambda1 [lindex $lambdaN 0];
set lambda2 [lindex $lambdaN 1];
set lambda3 [lindex $lambdaN 2];
set lambda4 [lindex $lambdaN 3];
set lambda5 [lindex $lambdaN 4];
set lambda6 [lindex $lambdaN 5];
set lambda7 [lindex $lambdaN 6];
set lambda8 [lindex $lambdaN 7];
set lambda9 [lindex $lambdaN 8];
set lambda10 [lindex $lambdaN 9];
set lambda11 [lindex $lambdaN 10];
set lambda12 [lindex $lambdaN 11];
set w1 [expr pow($lambda1, 0.5)];
set w2 [expr pow($lambda2, 0.5)];
set w3 [expr pow($lambda3, 0.5)];
set w4 [expr pow($lambda4, 0.5)];
set w5 [expr pow($lambda5, 0.5)];
set w6 [expr pow($lambda6, 0.5)];
set w7 [expr pow($lambda7, 0.5)];
set w8 [expr pow($lambda8, 0.5)];
set w9 [expr pow($lambda9, 0.5)];
set w10 [expr pow($lambda10, 0.5)];
set w11 [expr pow($lambda11, 0.5)];
set w12 [expr pow($lambda12, 0.5)];
set T1 [expr round(2.0*$pi/$w1 *1000.)/1000.];
set T2 [expr round(2.0*$pi/$w2 *1000.)/1000.];
set T3 [expr round(2.0*$pi/$w3 *1000.)/1000.];
set T4 [expr round(2.0*$pi/$w4 *1000.)/1000.];
set T5 [expr round(2.0*$pi/$w5 *1000.)/1000.];
set T6 [expr round(2.0*$pi/$w6 *1000.)/1000.];
set T7 [expr round(2.0*$pi/$w7 *1000.)/1000.];
set T8 [expr round(2.0*$pi/$w8 *1000.)/1000.];
set T9 [expr round(2.0*$pi/$w9 *1000.)/1000.];
set T10 [expr round(2.0*$pi/$w10 *1000.)/1000.];
set T11 [expr round(2.0*$pi/$w11 *1000.)/1000.];
set T12 [expr round(2.0*$pi/$w12 *1000.)/1000.];
puts "T1 = $T1 s";
puts "T2 = $T2 s";
puts "T3 = $T3 s";

set mode [list]
for {set i 1} {$i <= $NStory} {incr i} {
    lappend mode [expr [nodeEigenvector 11020204 $i 1]]
    lappend mode [expr [nodeEigenvector 11030204 $i 1]]
    lappend mode [expr [nodeEigenvector 11040204 $i 1]]
    lappend mode [expr [nodeEigenvector 11050204 $i 1]]
    lappend mode [expr [nodeEigenvector 11060204 $i 1]]
    lappend mode [expr [nodeEigenvector 11070204 $i 1]]
    lappend mode [expr [nodeEigenvector 11080204 $i 1]]
    lappend mode [expr [nodeEigenvector 11090204 $i 1]]
    lappend mode [expr [nodeEigenvector 11100204 $i 1]]
    lappend mode [expr [nodeEigenvector 11110204 $i 1]]
    lappend mode [expr [nodeEigenvector 11120204 $i 1]]
    lappend mode [expr [nodeEigenvector 11130204 $i 1]]
    set file_mode [open "$MainFolder/$SubFolder/mode$i.out" w]
    foreach val $mode {puts $file_mode $val}
    close $file_mode
    if {$i == 1} {set mode_list $mode}
    set mode [list]
};

set file_T [open "$MainFolder/$SubFolder/Period.out" w];
puts $file_T $T1;
puts $file_T $T2;
puts $file_T $T3;
puts $file_T $T4;
puts $file_T $T5;
puts $file_T $T6;
puts $file_T $T7;
puts $file_T $T8;
puts $file_T $T9;
puts $file_T $T10;
puts $file_T $T11;
puts $file_T $T12;
close $file_T;


# --------------------------- Static gravity analysis ----------------------------

pattern Plain 100 Linear {

    # Moment frame loads
    load 11020101 0. -187765.9 0.;      load 11020201 0. -125177.6 0.;      load 11020301 0. -125177.6 0.;      load 11020401 0. -187765.9 0.;
    load 11030101 0. -186667.9 0.;      load 11030201 0. -124445.6 0.;      load 11030301 0. -124445.6 0.;      load 11030401 0. -186667.9 0.;
    load 11040101 0. -186667.9 0.;      load 11040201 0. -124445.6 0.;      load 11040301 0. -124445.6 0.;      load 11040401 0. -186667.9 0.;
    load 11050101 0. -186667.9 0.;      load 11050201 0. -124445.6 0.;      load 11050301 0. -124445.6 0.;      load 11050401 0. -186667.9 0.;
    load 11060101 0. -186667.9 0.;      load 11060201 0. -124445.6 0.;      load 11060301 0. -124445.6 0.;      load 11060401 0. -186667.9 0.;
    load 11070101 0. -186667.9 0.;      load 11070201 0. -124445.6 0.;      load 11070301 0. -124445.6 0.;      load 11070401 0. -186667.9 0.;
    load 11080101 0. -186667.9 0.;      load 11080201 0. -124445.6 0.;      load 11080301 0. -124445.6 0.;      load 11080401 0. -186667.9 0.;
    load 11090101 0. -186667.9 0.;      load 11090201 0. -124445.6 0.;      load 11090301 0. -124445.6 0.;      load 11090401 0. -186667.9 0.;
    load 11100101 0. -186667.9 0.;      load 11100201 0. -124445.6 0.;      load 11100301 0. -124445.6 0.;      load 11100401 0. -186667.9 0.;
    load 11110101 0. -186667.9 0.;      load 11110201 0. -124445.6 0.;      load 11110301 0. -124445.6 0.;      load 11110401 0. -186667.9 0.;
    load 11120101 0. -186667.9 0.;      load 11120201 0. -124445.6 0.;      load 11120301 0. -124445.6 0.;      load 11120401 0. -186667.9 0.;
    load 11130101 0. -154661.2 0.;      load 11130201 0. -103107.8 0.;      load 11130301 0. -103107.8 0.;      load 11130401 0. -154661.2 0.;

    # gravity frame loads
    load 10020500 0. -3075525.5 0.;
    load 10030500 0. -3070145.2 0.;
    load 10040500 0. -3070145.2 0.;
    load 10050500 0. -3070145.2 0.;
    load 10060500 0. -3070145.2 0.;
    load 10070500 0. -3070145.2 0.;
    load 10080500 0. -3070145.2 0.;
    load 10090500 0. -3070145.2 0.;
    load 10100500 0. -3070145.2 0.;
    load 10110500 0. -3070145.2 0.;
    load 10120500 0. -3070145.2 0.;
    load 10130500 0. -2761607.2 0.;

}

wipeAnalysis
constraints Plain;
numberer RCM;
system BandGeneral;
test NormDispIncr 1.0e-5 60;
algorithm Newton;
integrator LoadControl 0.1;
analysis Static;
analyze 10;
loadConst -time 0.0;


# ---------------------------- Time history analysis -----------------------------

if {$ShowAnimation == 1} {DisplayModel3D DeformedShape 5.00 100 100 1600 1000};
set MF_FloorNodes [list 11020204 11030204 11040204 11050204 11060204 11070204 11080204 11090204 11100204 11110204 11120204 11130204];

if {$analysis_type == "TH"} {

    # Rayleigh damping
    set zeta 0.02;
    set a0 [expr $zeta*2.0*$w1*$w3/($w1 + $w3)];
    set a1 [expr $zeta*2.0/($w1 + $w3)];
    set a1_mod [expr $a1*(1.0+$n)/$n];
    set beam_Ids [list 10020104 10020211 10020212 10020304 10030104 10030211 10030212 10030304 10040104 10040211 10040212 10040304 10050104 10050211 10050212 10050304 10060104 10060211 10060212 10060304 10070104 10070211 10070212 10070304 10080104 10080211 10080212 10080304 10090104 10090211 10090212 10090304 10100104 10100211 10100212 10100304 10110104 10110211 10110212 10110304 10120104 10120211
    set column_Ids [list 10010101 10010201 10010301 10010401 10020101 10020201 10020301 10020401 10030102 10030103 10030202 10030203 10030302 10030303 10030402 10030403 10040101 10040201 10040301 10040401 10050102 10050103 10050202 10050203 10050302 10050303 10050402 10050403 10060101 10060201 10060301 10060401 10070102 10070103 10070202 10070203 10070302 10070303 10070402 10070403 10080101 100802
    set mass_Ids [list 11020104 11020204 11020304 11020404 11020504 11020604 11020704 11020804 11020904 11021004 11021104 11021204 11030104 11030204 11030304 11030404 11030504 11030604 11030704 11030804 11030904 11031004 11031104 11031204 11040104 11040204 11040304 11040404 11040504 11040604 11040704 11040804 11040904 11041004 11041104 11041204 11050104 11050204 11050304 11050404 11050504 11050604
    # region 1 -ele {*}$beam_Ids -rayleigh 0.0 0.0 $a1_mod 0.0;
    # region 2 -ele {*}$column_Ids -rayleigh 0.0 0.0 $a1_mod 0.0;
    # region 3 -ele {*}$mass_Ids -rayleigh $a0 0.0 0.0 0.0;
    rayleigh $a0 0.0 $a1 0.0;

    # Ground motion acceleration file input
    timeSeries Path 200 -dt $GMdt -filePath $GMFile -factor [expr $EqSF * $g];
    recorder Node -file $MainFolder/$SubFolder/groundmotion.out -timeSeries 200 -node 10010100 -dof 1 accel;
    pattern UniformExcitation 200 1 -accel 200;
    set totalTime [expr $GMduration + $FVduration];
    set CollapseDrift 0.1;  # $$$
    set MaxAnalysisDrift 0.5;
    set result [TimeHistorySolver $GMdt $totalTime $story_heights $MF_FloorNodes $CollapseDrift $MaxAnalysisDrift $GMname $maxRunTime $temp];
    set status [lindex $result 0];
    set controlled_time [lindex $result 1];
    puts "Running status: $status";
    puts "Controlled time: $controlled_time";

# ------------------------------ Pushover analysis -------------------------------

} elseif {$analysis_type == "PO"} {

    set m2 322.469;
    set m3 321.573;
    set m4 321.573;
    set m5 321.573;
    set m6 321.573;
    set m7 321.573;
    set m8 321.573;
    set m9 321.573;
    set m10 321.573;
    set m11 321.573;
    set m12 321.573;
    set m13 303.647;

    set F2 [expr $m2 * [lindex $mode_list 0]];
    set F3 [expr $m3 * [lindex $mode_list 1]];
    set F4 [expr $m4 * [lindex $mode_list 2]];
    set F5 [expr $m5 * [lindex $mode_list 3]];
    set F6 [expr $m6 * [lindex $mode_list 4]];
    set F7 [expr $m7 * [lindex $mode_list 5]];
    set F8 [expr $m8 * [lindex $mode_list 6]];
    set F9 [expr $m9 * [lindex $mode_list 7]];
    set F10 [expr $m10 * [lindex $mode_list 8]];
    set F11 [expr $m11 * [lindex $mode_list 9]];
    set F12 [expr $m12 * [lindex $mode_list 10]];
    set F13 [expr $m13 * [lindex $mode_list 11]];
    pattern Plain 222 Linear {
        load 11020204 $F2 0.0 0.0;
        load 11030204 $F3 0.0 0.0;
        load 11040204 $F4 0.0 0.0;
        load 11050204 $F5 0.0 0.0;
        load 11060204 $F6 0.0 0.0;
        load 11070204 $F7 0.0 0.0;
        load 11080204 $F8 0.0 0.0;
        load 11090204 $F9 0.0 0.0;
        load 11100204 $F10 0.0 0.0;
        load 11110204 $F11 0.0 0.0;
        load 11120204 $F12 0.0 0.0;
        load 11130204 $F13 0.0 0.0;
    };
    set CtrlNode 11130204;
    set maxRoofDrift 0.1;  # $$$
    set Dmax [expr $maxRoofDrift * $Floor13];
    set Dincr 0.5;
    set result [PushoverAnalysis $CtrlNode $Dmax $Dincr $maxRunTime];
    set status [lindex $result 0];
    set roofDisp [lindex $result 1];
    puts "Running status: $status";
    puts "Roof displacement: $roofDisp";
    puts "Roof drift ratio: [expr $roofDisp / $HBuilding]";

# ------------------------------- Cyclic pushover --------------------------------

} elseif {$analysis_type == "CP"} {

    set RDR_path [list 0 0.02 -0.02 0];  # $$$

    set m2 322.469;
    set m3 321.573;
    set m4 321.573;
    set m5 321.573;
    set m6 321.573;
    set m7 321.573;
    set m8 321.573;
    set m9 321.573;
    set m10 321.573;
    set m11 321.573;
    set m12 321.573;
    set m13 303.647;

    set F2 [expr $m2 * [lindex $mode_list 0]];
    set F3 [expr $m3 * [lindex $mode_list 1]];
    set F4 [expr $m4 * [lindex $mode_list 2]];
    set F5 [expr $m5 * [lindex $mode_list 3]];
    set F6 [expr $m6 * [lindex $mode_list 4]];
    set F7 [expr $m7 * [lindex $mode_list 5]];
    set F8 [expr $m8 * [lindex $mode_list 6]];
    set F9 [expr $m9 * [lindex $mode_list 7]];
    set F10 [expr $m10 * [lindex $mode_list 8]];
    set F11 [expr $m11 * [lindex $mode_list 9]];
    set F12 [expr $m12 * [lindex $mode_list 10]];
    set F13 [expr $m13 * [lindex $mode_list 11]];
    pattern Plain 222 Linear {
        load 11020204 $F2 0.0 0.0;
        load 11030204 $F3 0.0 0.0;
        load 11040204 $F4 0.0 0.0;
        load 11050204 $F5 0.0 0.0;
        load 11060204 $F6 0.0 0.0;
        load 11070204 $F7 0.0 0.0;
        load 11080204 $F8 0.0 0.0;
        load 11090204 $F9 0.0 0.0;
        load 11100204 $F10 0.0 0.0;
        load 11110204 $F11 0.0 0.0;
        load 11120204 $F12 0.0 0.0;
        load 11130204 $F13 0.0 0.0;
    };
    set CtrlNode 11130204;
    set Dincr 0.5;
    CyclicPushover $CtrlNode $RDR_path $HBuilding $Dincr $maxRunTime;

}

wipe all;


# ----------------------------- Building information -----------------------------
#
# Moment resisting frame model information
# Frame name: MRF12S
# Generation time: 2024-10-20 11:30:14.854354
# All units are in [N, mm, t]
# 
# 
# --------------- 1. Building Geometry ---------------
# 
# Building height: 48200
# Number of story: 12
# Number of bays: 3
# Plane dimensions [mm]: 42700 x 30500
# Number of moment frames: 2
# External column tributary area [mm]: 9150 x 3050
# Internal column tributary area [mm]: 6100 x 3050
# 
# 
# --------------- 2. Structural Components ---------------
# 
# Beam sections:
#  Floor   Bay-1   Bay-2   Bay-3
#      2 W30x132 W30x132 W30x132
#      3 W30x132 W30x132 W30x132
#      4 W30x132 W30x132 W30x132
#      5 W30x132 W30x132 W30x132
#      6 W30x124 W30x124 W30x124
#      7 W30x124 W30x124 W30x124
#      8 W30x108 W30x108 W30x108
#      9 W30x108 W30x108 W30x108
#     10  W27x94  W27x94  W27x94
#     11  W27x94  W27x94  W27x94
#     12  W24x76  W24x76  W24x76
#     13  W24x76  W24x76  W24x76
# 
# Column sections:
#  Story  Axis-1  Axis-2  Axis-3  Axis-4
#      1 W27x235 W27x281 W27x281 W27x235
#      2 W27x235 W27x281 W27x281 W27x235
#      3 W27x235 W27x281 W27x281 W27x235
#      4 W27x217 W27x258 W27x258 W27x217
#      5 W27x217 W27x258 W27x258 W27x217
#      6 W27x178 W27x217 W27x217 W27x178
#      7 W27x178 W27x217 W27x217 W27x178
#      8 W27x129 W27x194 W27x194 W27x129
#      9 W27x129 W27x194 W27x194 W27x129
#     10 W27x114 W27x129 W27x129 W27x114
#     11 W27x114 W27x129 W27x129 W27x114
#     12  W27x94 W27x102 W27x102  W27x94
# 
# Stories with column splices: 3, 5, 7, 9, 11
# 
# Doubler plate thickness [mm]:
#  Floor  Axis-1  Axis-2  Axis-3  Axis-4
#      2  6.3500 30.1625 30.1625  6.3500
#      3  6.3500 28.5750 28.5750  6.3500
#      4  7.9375 33.3375 33.3375  7.9375
#      5  7.9375 33.3375 33.3375  7.9375
#      6  9.5250 33.3375 33.3375  9.5250
#      7  9.5250 33.3375 33.3375  9.5250
#      8  7.9375 26.9875 26.9875  7.9375
#      9  7.9375 26.9875 26.9875  7.9375
#     10  7.9375 26.9875 26.9875  7.9375
#     11  7.9375 26.9875 26.9875  7.9375
#     12  6.3500 23.8125 23.8125  6.3500
#     13  6.3500 23.8125 23.8125  6.3500
# 
# 
# --------------- 3. Load and Material ---------------
# 
# Material properties:
# 	Young's modulus [MPa]: 206000
# 	Nominal yield strength of beams [MPa]: 345
# 	Nominal yield strength of columns [MPa]: 345
# 	Possion ratio: 0.3
# 
# Load [MPa]:
# Story/Floor   Dead    Live  Cladding
#         1/2 0.0043 0.00240    0.0012
#         2/3 0.0043 0.00240    0.0012
#         3/4 0.0043 0.00240    0.0012
#         4/5 0.0043 0.00240    0.0012
#         5/6 0.0043 0.00240    0.0012
#         6/7 0.0043 0.00240    0.0012
#         7/8 0.0043 0.00240    0.0012
#         8/9 0.0043 0.00240    0.0012
#        9/10 0.0043 0.00240    0.0012
#       10/11 0.0043 0.00240    0.0012
#       11/12 0.0043 0.00240    0.0012
#       12/13 0.0043 0.00096    0.0012
# 
# Load and mass combination coefficients:
#         Dead  Live  Cladding
# Weight  1.05  0.25      1.05
# Mass    1.00  0.00      1.00
# 
# Axial compressive ratio of columns:
# Story   Axis-1   Axis-2   Axis-3   Axis-4
#    1b 0.143011 0.079623 0.079623 0.143011
#    1t 0.143011 0.079623 0.079623 0.143011
#    2b 0.130856 0.072855 0.072855 0.130856
#    2t 0.130856 0.072855 0.072855 0.130856
#    3b 0.118772 0.066127 0.066127 0.118772
#    3t 0.128994 0.072210 0.072210 0.128994
#    4b 0.115870 0.064863 0.064863 0.115870
#    4t 0.115870 0.064863 0.064863 0.115870
#    5b 0.102746 0.057516 0.057516 0.102746
#    5t 0.125056 0.068497 0.068497 0.125056
#    6b 0.109082 0.059748 0.059748 0.109082
#    6t 0.109082 0.059748 0.059748 0.109082
#    7b 0.093107 0.050998 0.050998 0.093107
#    7t 0.129316 0.057071 0.057071 0.129316
#    8b 0.107129 0.047279 0.047279 0.107129
#    8t 0.107129 0.047279 0.047279 0.107129
#    9b 0.084942 0.037488 0.037488 0.084942
#    9t 0.095560 0.056628 0.056628 0.095560
#   10b 0.070600 0.041837 0.041837 0.070600
#   10t 0.070600 0.041837 0.041837 0.070600
#   11b 0.045640 0.027046 0.027046 0.045640
#   11t 0.055562 0.034078 0.034078 0.055562
#   12b 0.025176 0.015441 0.015441 0.025176
#   12t 0.025176 0.015441 0.015441 0.025176
# 
# Seiemic weight of considered 2D frame: 43902.28 kN
# Seiemic mass of considered 2D frame: 3841.85 t
# 
# 
# --------------- 4. Connection and Boundary Condition ---------------
# 
# Base support: Fixed
# Beam-to-column connection: Fully constrained connection
# Consider panel zone deformation: Yes (Parallelogram)
# 

