# --------------------------------------------------------------------------------
# ------------------------------------ MRF8S -------------------------------------
# -------------------- Generated by: MRFHelper (Version 2.1) ---------------------
# ------------------ (https://github.com/WenchenLie/MRFModeler) ------------------
# --------------------------------------------------------------------------------


wipe all;
model basic -ndm 2 -ndf 3;

# Basic model variables
set maxRunTime 600.0;  # $$$
set analysis_type "TH";  # $$$
set ShowAnimation 1;  # $$$
set MPCO 0;  # $$$

# Ground motion information
set MainFolder "H:/MRF_results/test/4SMRF";  # $$$
set GMname "th5";  # $$$
set SubFolder "th5";  # $$$
set GMdt 0.01;  # $$$
set GMpoints 5590;  # $$$
set GMduration 55.89;  # $$$
set FVduration 30;  # $$$
set EqSF 2.0;  # $$$
set GMFile "F:/MRF/GMs/$GMname.th";  # $$$
set subroutines "F:/MRF/subroutines";  # $$$
set temp "F:/MRF/temp";  # $$$

# Sourcing subroutines
cd $subroutines;
source DisplayModel3D.tcl;
source DisplayPlane.tcl;
source Spring_Zero.tcl;
source Spring_Rigid.tcl;
source PanelZone.tcl
source BeamHinge.tcl
source ColumnHinge.tcl
source TimeHistorySolver.tcl;
source PushoverAnalysis.tcl;
source CyclicPushover.tcl;

# Results folders
file mkdir $MainFolder;
file mkdir $MainFolder/$SubFolder;

# Basic parameters
set NStory 8;
set NBay 3;
set E 206000.00;
set mu 0.3;
set fy_beam 345.00;
set fy_column 345.00;
uniaxialMaterial Elastic 9 1.e-9;
uniaxialMaterial Elastic 99 1.e12;
geomTransf Linear 1;
geomTransf PDelta 2;
geomTransf Corotational 3;
set A_Stiff 1.e8;
set I_Stiff 1.e13;

# Building geometry
set Floor1 0.0;
set Floor2 4200.0;
set Floor3 8200.0;
set Floor4 12200.0;
set Floor5 16200.0;
set Floor6 20200.0;
set Floor7 24200.0;
set Floor8 28200.0;
set Floor9 32200.0;

set Axis1 0.0;
set Axis2 6100.0;
set Axis3 12200.0;
set Axis4 18300.0;
set Axis5 24400.0;

set HBuilding 32200.0;
set story_heights [list 4200 4000 4000 4000 4000 4000 4000 4000];


# ------------------------------------ Nodes -------------------------------------

# Support nodes
node 10010100 $Axis1 $Floor1;
node 10010200 $Axis2 $Floor1;
node 10010300 $Axis3 $Floor1;
node 10010400 $Axis4 $Floor1;
node 10010500 $Axis5 $Floor1;

# Leaning column grid nodes
node 10020500 $Axis5 $Floor2;
node 10030500 $Axis5 $Floor3;
node 10040500 $Axis5 $Floor4;
node 10050500 $Axis5 $Floor5;
node 10060500 $Axis5 $Floor6;
node 10070500 $Axis5 $Floor7;
node 10080500 $Axis5 $Floor8;
node 10090500 $Axis5 $Floor9;

# Leaning column connected nodes
node 10020502 $Axis5 $Floor2;
node 10020501 $Axis5 $Floor2;
node 10030502 $Axis5 $Floor3;
node 10030501 $Axis5 $Floor3;
node 10040502 $Axis5 $Floor4;
node 10040501 $Axis5 $Floor4;
node 10050502 $Axis5 $Floor5;
node 10050501 $Axis5 $Floor5;
node 10060502 $Axis5 $Floor6;
node 10060501 $Axis5 $Floor6;
node 10070502 $Axis5 $Floor7;
node 10070501 $Axis5 $Floor7;
node 10080502 $Axis5 $Floor8;
node 10080501 $Axis5 $Floor8;
node 10090502 $Axis5 $Floor9;

# Moment frame column nodes
node 10010101 $Axis1 $Floor1;  node 10010201 $Axis2 $Floor1;  node 10010301 $Axis3 $Floor1;  node 10010401 $Axis4 $Floor1;
node 10020102 $Axis1 [expr $Floor2 - 688.34/2];  node 10020202 $Axis2 [expr $Floor2 - 688.34/2];  node 10020302 $Axis3 [expr $Floor2 - 688.34/2];  node 10020402 $Axis4 [expr $Floor2 - 688.34/2];
node 10020101 $Axis1 [expr $Floor2 + 688.34/2];  node 10020201 $Axis2 [expr $Floor2 + 688.34/2];  node 10020301 $Axis3 [expr $Floor2 + 688.34/2];  node 10020401 $Axis4 [expr $Floor2 + 688.34/2];
node 10030102 $Axis1 [expr $Floor3 - 688.34/2];  node 10030202 $Axis2 [expr $Floor3 - 688.34/2];  node 10030302 $Axis3 [expr $Floor3 - 688.34/2];  node 10030402 $Axis4 [expr $Floor3 - 688.34/2];
node 10030101 $Axis1 [expr $Floor3 + 688.34/2];  node 10030201 $Axis2 [expr $Floor3 + 688.34/2];  node 10030301 $Axis3 [expr $Floor3 + 688.34/2];  node 10030401 $Axis4 [expr $Floor3 + 688.34/2];
node 10040102 $Axis1 [expr $Floor4 - 683.26/2];  node 10040202 $Axis2 [expr $Floor4 - 683.26/2];  node 10040302 $Axis3 [expr $Floor4 - 683.26/2];  node 10040402 $Axis4 [expr $Floor4 - 683.26/2];
node 10040101 $Axis1 [expr $Floor4 + 683.26/2];  node 10040201 $Axis2 [expr $Floor4 + 683.26/2];  node 10040301 $Axis3 [expr $Floor4 + 683.26/2];  node 10040401 $Axis4 [expr $Floor4 + 683.26/2];
node 10050102 $Axis1 [expr $Floor5 - 683.26/2];  node 10050202 $Axis2 [expr $Floor5 - 683.26/2];  node 10050302 $Axis3 [expr $Floor5 - 683.26/2];  node 10050402 $Axis4 [expr $Floor5 - 683.26/2];
node 10050101 $Axis1 [expr $Floor5 + 683.26/2];  node 10050201 $Axis2 [expr $Floor5 + 683.26/2];  node 10050301 $Axis3 [expr $Floor5 + 683.26/2];  node 10050401 $Axis4 [expr $Floor5 + 683.26/2];
node 10060102 $Axis1 [expr $Floor6 - 607.06/2];  node 10060202 $Axis2 [expr $Floor6 - 607.06/2];  node 10060302 $Axis3 [expr $Floor6 - 607.06/2];  node 10060402 $Axis4 [expr $Floor6 - 607.06/2];
node 10060101 $Axis1 [expr $Floor6 + 607.06/2];  node 10060201 $Axis2 [expr $Floor6 + 607.06/2];  node 10060301 $Axis3 [expr $Floor6 + 607.06/2];  node 10060401 $Axis4 [expr $Floor6 + 607.06/2];
node 10070102 $Axis1 [expr $Floor7 - 607.06/2];  node 10070202 $Axis2 [expr $Floor7 - 607.06/2];  node 10070302 $Axis3 [expr $Floor7 - 607.06/2];  node 10070402 $Axis4 [expr $Floor7 - 607.06/2];
node 10070101 $Axis1 [expr $Floor7 + 607.06/2];  node 10070201 $Axis2 [expr $Floor7 + 607.06/2];  node 10070301 $Axis3 [expr $Floor7 + 607.06/2];  node 10070401 $Axis4 [expr $Floor7 + 607.06/2];
node 10080102 $Axis1 [expr $Floor8 - 535.94/2];  node 10080202 $Axis2 [expr $Floor8 - 535.94/2];  node 10080302 $Axis3 [expr $Floor8 - 535.94/2];  node 10080402 $Axis4 [expr $Floor8 - 535.94/2];
node 10080101 $Axis1 [expr $Floor8 + 535.94/2];  node 10080201 $Axis2 [expr $Floor8 + 535.94/2];  node 10080301 $Axis3 [expr $Floor8 + 535.94/2];  node 10080401 $Axis4 [expr $Floor8 + 535.94/2];
node 10090102 $Axis1 [expr $Floor9 - 535.94/2];  node 10090202 $Axis2 [expr $Floor9 - 535.94/2];  node 10090302 $Axis3 [expr $Floor9 - 535.94/2];  node 10090402 $Axis4 [expr $Floor9 - 535.94/2];

# Moment frame beam nodes
node 10020104 [expr $Axis1 + 317.50] $Floor2;  node 10020205 [expr $Axis2 - 323.85] $Floor2;  node 10020204 [expr $Axis2 + 323.85] $Floor2;  node 10020305 [expr $Axis3 - 323.85] $Floor2;  node 10020304 [expr $Axis3 + 323.85] $Floor2;  node 10020405 [expr $Axis4 - 317.50] $Floor2;
node 10030104 [expr $Axis1 + 317.50] $Floor3;  node 10030205 [expr $Axis2 - 323.85] $Floor3;  node 10030204 [expr $Axis2 + 323.85] $Floor3;  node 10030305 [expr $Axis3 - 323.85] $Floor3;  node 10030304 [expr $Axis3 + 323.85] $Floor3;  node 10030405 [expr $Axis4 - 317.50] $Floor3;
node 10040104 [expr $Axis1 + 311.15] $Floor4;  node 10040205 [expr $Axis2 - 320.04] $Floor4;  node 10040204 [expr $Axis2 + 320.04] $Floor4;  node 10040305 [expr $Axis3 - 320.04] $Floor4;  node 10040304 [expr $Axis3 + 320.04] $Floor4;  node 10040405 [expr $Axis4 - 311.15] $Floor4;
node 10050104 [expr $Axis1 + 311.15] $Floor5;  node 10050205 [expr $Axis2 - 320.04] $Floor5;  node 10050204 [expr $Axis2 + 320.04] $Floor5;  node 10050305 [expr $Axis3 - 320.04] $Floor5;  node 10050304 [expr $Axis3 + 320.04] $Floor5;  node 10050405 [expr $Axis4 - 311.15] $Floor5;
node 10060104 [expr $Axis1 + 311.15] $Floor6;  node 10060205 [expr $Axis2 - 311.15] $Floor6;  node 10060204 [expr $Axis2 + 311.15] $Floor6;  node 10060305 [expr $Axis3 - 311.15] $Floor6;  node 10060304 [expr $Axis3 + 311.15] $Floor6;  node 10060405 [expr $Axis4 - 311.15] $Floor6;
node 10070104 [expr $Axis1 + 311.15] $Floor7;  node 10070205 [expr $Axis2 - 311.15] $Floor7;  node 10070204 [expr $Axis2 + 311.15] $Floor7;  node 10070305 [expr $Axis3 - 311.15] $Floor7;  node 10070304 [expr $Axis3 + 311.15] $Floor7;  node 10070405 [expr $Axis4 - 311.15] $Floor7;
node 10080104 [expr $Axis1 + 308.61] $Floor8;  node 10080205 [expr $Axis2 - 308.61] $Floor8;  node 10080204 [expr $Axis2 + 308.61] $Floor8;  node 10080305 [expr $Axis3 - 308.61] $Floor8;  node 10080304 [expr $Axis3 + 308.61] $Floor8;  node 10080405 [expr $Axis4 - 308.61] $Floor8;
node 10090104 [expr $Axis1 + 308.61] $Floor9;  node 10090205 [expr $Axis2 - 308.61] $Floor9;  node 10090204 [expr $Axis2 + 308.61] $Floor9;  node 10090305 [expr $Axis3 - 308.61] $Floor9;  node 10090304 [expr $Axis3 + 308.61] $Floor9;  node 10090405 [expr $Axis4 - 308.61] $Floor9;

# Beam spring nodes (If RBS length equal zero, beam spring nodes will not be generated)









# Column splice ndoes
node 10030107 $Axis1 [expr $Floor3 + 0.5 * 4000.00];  node 10030207 $Axis2 [expr $Floor3 + 0.5 * 4000.00];  node 10030307 $Axis3 [expr $Floor3 + 0.5 * 4000.00];  node 10030407 $Axis4 [expr $Floor3 + 0.5 * 4000.00];
node 10050107 $Axis1 [expr $Floor5 + 0.5 * 4000.00];  node 10050207 $Axis2 [expr $Floor5 + 0.5 * 4000.00];  node 10050307 $Axis3 [expr $Floor5 + 0.5 * 4000.00];  node 10050407 $Axis4 [expr $Floor5 + 0.5 * 4000.00];
node 10070107 $Axis1 [expr $Floor7 + 0.5 * 4000.00];  node 10070207 $Axis2 [expr $Floor7 + 0.5 * 4000.00];  node 10070307 $Axis3 [expr $Floor7 + 0.5 * 4000.00];  node 10070407 $Axis4 [expr $Floor7 + 0.5 * 4000.00];

# Beam splice ndoes
node 10020208 [expr $Axis2 + 6100.00 / 2] $Floor2;
node 10030208 [expr $Axis2 + 6100.00 / 2] $Floor3;
node 10040208 [expr $Axis2 + 6100.00 / 2] $Floor4;
node 10050208 [expr $Axis2 + 6100.00 / 2] $Floor5;
node 10060208 [expr $Axis2 + 6100.00 / 2] $Floor6;
node 10070208 [expr $Axis2 + 6100.00 / 2] $Floor7;
node 10080208 [expr $Axis2 + 6100.00 / 2] $Floor8;
node 10090208 [expr $Axis2 + 6100.00 / 2] $Floor9;


# ----------------------------------- Elements -----------------------------------

set n 10.;

# Column elements
element elasticBeamColumn 10010101 10010101 10020102 30838.65 $E [expr ($n+1)/$n*2151916470.35] 2;  element elasticBeamColumn 10010201 10010201 10020202 36451.54 $E [expr ($n+1)/$n*2605608724.26] 2;  element elasticBeamColumn 10010301 10010301 10020302 36451.54 $E [expr ($n+1)/$n*2605608724.26] 2;  element elasticBeamColumn 10010401 10010401 10020402 30838.65 $E [expr ($n+1)/$n*2151916470.35] 2;
element elasticBeamColumn 10020101 10020101 10030102 30838.65 $E [expr ($n+1)/$n*2151916470.35] 2;  element elasticBeamColumn 10020201 10020201 10030202 36451.54 $E [expr ($n+1)/$n*2605608724.26] 2;  element elasticBeamColumn 10020301 10020301 10030302 36451.54 $E [expr ($n+1)/$n*2605608724.26] 2;  element elasticBeamColumn 10020401 10020401 10030402 30838.65 $E [expr ($n+1)/$n*2151916470.35] 2;
element elasticBeamColumn 10030102 10030101 10030107 30838.65 $E [expr ($n+1)/$n*2151916470.35] 2;  element elasticBeamColumn 10030202 10030201 10030207 36451.54 $E [expr ($n+1)/$n*2605608724.26] 2;  element elasticBeamColumn 10030302 10030301 10030307 36451.54 $E [expr ($n+1)/$n*2605608724.26] 2;  element elasticBeamColumn 10030402 10030401 10030407 30838.65 $E [expr ($n+1)/$n*2151916470.35] 2;
element elasticBeamColumn 10030103 10030107 10040102 24903.18 $E [expr ($n+1)/$n*1673250330.91] 2;  element elasticBeamColumn 10030203 10030207 10040202 33354.77 $E [expr ($n+1)/$n*2364194497.41] 2;  element elasticBeamColumn 10030303 10030307 10040302 33354.77 $E [expr ($n+1)/$n*2364194497.41] 2;  element elasticBeamColumn 10030403 10030407 10040402 24903.18 $E [expr ($n+1)/$n*1673250330.91] 2;
element elasticBeamColumn 10040101 10040101 10050102 24903.18 $E [expr ($n+1)/$n*1673250330.91] 2;  element elasticBeamColumn 10040201 10040201 10050202 33354.77 $E [expr ($n+1)/$n*2364194497.41] 2;  element elasticBeamColumn 10040301 10040301 10050302 33354.77 $E [expr ($n+1)/$n*2364194497.41] 2;  element elasticBeamColumn 10040401 10040401 10050402 24903.18 $E [expr ($n+1)/$n*1673250330.91] 2;
element elasticBeamColumn 10050102 10050101 10050107 24903.18 $E [expr ($n+1)/$n*1673250330.91] 2;  element elasticBeamColumn 10050202 10050201 10050207 33354.77 $E [expr ($n+1)/$n*2364194497.41] 2;  element elasticBeamColumn 10050302 10050301 10050307 33354.77 $E [expr ($n+1)/$n*2364194497.41] 2;  element elasticBeamColumn 10050402 10050401 10050407 24903.18 $E [expr ($n+1)/$n*1673250330.91] 2;
element elasticBeamColumn 10050103 10050107 10060102 19548.35 $E [expr ($n+1)/$n*1248694276.80] 2;  element elasticBeamColumn 10050203 10050207 10060202 24903.18 $E [expr ($n+1)/$n*1673250330.91] 2;  element elasticBeamColumn 10050303 10050307 10060302 24903.18 $E [expr ($n+1)/$n*1673250330.91] 2;  element elasticBeamColumn 10050403 10050407 10060402 19548.35 $E [expr ($n+1)/$n*1248694276.80] 2;
element elasticBeamColumn 10060101 10060101 10070102 19548.35 $E [expr ($n+1)/$n*1248694276.80] 2;  element elasticBeamColumn 10060201 10060201 10070202 24903.18 $E [expr ($n+1)/$n*1673250330.91] 2;  element elasticBeamColumn 10060301 10060301 10070302 24903.18 $E [expr ($n+1)/$n*1673250330.91] 2;  element elasticBeamColumn 10060401 10060401 10070402 19548.35 $E [expr ($n+1)/$n*1248694276.80] 2;
element elasticBeamColumn 10070102 10070101 10070107 19548.35 $E [expr ($n+1)/$n*1248694276.80] 2;  element elasticBeamColumn 10070202 10070201 10070207 24903.18 $E [expr ($n+1)/$n*1673250330.91] 2;  element elasticBeamColumn 10070302 10070301 10070307 24903.18 $E [expr ($n+1)/$n*1673250330.91] 2;  element elasticBeamColumn 10070402 10070401 10070407 19548.35 $E [expr ($n+1)/$n*1248694276.80] 2;
element elasticBeamColumn 10070103 10070107 10080102 17870.93 $E [expr ($n+1)/$n*1123824849.12] 2;  element elasticBeamColumn 10070203 10070207 10080202 17870.93 $E [expr ($n+1)/$n*1123824849.12] 2;  element elasticBeamColumn 10070303 10070307 10080302 17870.93 $E [expr ($n+1)/$n*1123824849.12] 2;  element elasticBeamColumn 10070403 10070407 10080402 17870.93 $E [expr ($n+1)/$n*1123824849.12] 2;
element elasticBeamColumn 10080101 10080101 10090102 17870.93 $E [expr ($n+1)/$n*1123824849.12] 2;  element elasticBeamColumn 10080201 10080201 10090202 17870.93 $E [expr ($n+1)/$n*1123824849.12] 2;  element elasticBeamColumn 10080301 10080301 10090302 17870.93 $E [expr ($n+1)/$n*1123824849.12] 2;  element elasticBeamColumn 10080401 10080401 10090402 17870.93 $E [expr ($n+1)/$n*1123824849.12] 2;

# Beam elements
element elasticBeamColumn 10020104 10020104 10020205 19354.80 $E [expr ($n+1)/$n*1506757760.67] 2;  element elasticBeamColumn 10020211 10020204 10020208 19354.80 $E [expr ($n+1)/$n*1506757760.67] 2;  element elasticBeamColumn 10020212 10020208 10020305 19354.80 $E [expr ($n+1)/$n*1506757760.67] 2;  element elasticBeamColumn 10020304 10020304 10020405 19354.80 $E [expr ($n+1)/$n*1506757760.67] 2;
element elasticBeamColumn 10030104 10030104 10030205 19354.80 $E [expr ($n+1)/$n*1506757760.67] 2;  element elasticBeamColumn 10030211 10030204 10030208 19354.80 $E [expr ($n+1)/$n*1506757760.67] 2;  element elasticBeamColumn 10030212 10030208 10030305 19354.80 $E [expr ($n+1)/$n*1506757760.67] 2;  element elasticBeamColumn 10030304 10030304 10030405 19354.80 $E [expr ($n+1)/$n*1506757760.67] 2;
element elasticBeamColumn 10040104 10040104 10040205 17806.42 $E [expr ($n+1)/$n*1361076761.71] 2;  element elasticBeamColumn 10040211 10040204 10040208 17806.42 $E [expr ($n+1)/$n*1361076761.71] 2;  element elasticBeamColumn 10040212 10040208 10040305 17806.42 $E [expr ($n+1)/$n*1361076761.71] 2;  element elasticBeamColumn 10040304 10040304 10040405 17806.42 $E [expr ($n+1)/$n*1361076761.71] 2;
element elasticBeamColumn 10050104 10050104 10050205 17806.42 $E [expr ($n+1)/$n*1361076761.71] 2;  element elasticBeamColumn 10050211 10050204 10050208 17806.42 $E [expr ($n+1)/$n*1361076761.71] 2;  element elasticBeamColumn 10050212 10050208 10050305 17806.42 $E [expr ($n+1)/$n*1361076761.71] 2;  element elasticBeamColumn 10050304 10050304 10050405 17806.42 $E [expr ($n+1)/$n*1361076761.71] 2;
element elasticBeamColumn 10060104 10060104 10060205 14451.58 $E [expr ($n+1)/$n*874085993.76] 2;  element elasticBeamColumn 10060211 10060204 10060208 14451.58 $E [expr ($n+1)/$n*874085993.76] 2;  element elasticBeamColumn 10060212 10060208 10060305 14451.58 $E [expr ($n+1)/$n*874085993.76] 2;  element elasticBeamColumn 10060304 10060304 10060405 14451.58 $E [expr ($n+1)/$n*874085993.76] 2;
element elasticBeamColumn 10070104 10070104 10070205 14451.58 $E [expr ($n+1)/$n*874085993.76] 2;  element elasticBeamColumn 10070211 10070204 10070208 14451.58 $E [expr ($n+1)/$n*874085993.76] 2;  element elasticBeamColumn 10070212 10070208 10070305 14451.58 $E [expr ($n+1)/$n*874085993.76] 2;  element elasticBeamColumn 10070304 10070304 10070405 14451.58 $E [expr ($n+1)/$n*874085993.76] 2;
element elasticBeamColumn 10080104 10080104 10080205 12903.20 $E [expr ($n+1)/$n*616022509.89] 2;  element elasticBeamColumn 10080211 10080204 10080208 12903.20 $E [expr ($n+1)/$n*616022509.89] 2;  element elasticBeamColumn 10080212 10080208 10080305 12903.20 $E [expr ($n+1)/$n*616022509.89] 2;  element elasticBeamColumn 10080304 10080304 10080405 12903.20 $E [expr ($n+1)/$n*616022509.89] 2;
element elasticBeamColumn 10090104 10090104 10090205 12903.20 $E [expr ($n+1)/$n*616022509.89] 2;  element elasticBeamColumn 10090211 10090204 10090208 12903.20 $E [expr ($n+1)/$n*616022509.89] 2;  element elasticBeamColumn 10090212 10090208 10090305 12903.20 $E [expr ($n+1)/$n*616022509.89] 2;  element elasticBeamColumn 10090304 10090304 10090405 12903.20 $E [expr ($n+1)/$n*616022509.89] 2;

# Panel zones
# PanelNone Floor Axis X Y E mu fy_column A_stiff I_stiff d_col d_beam tp tf bf transfTag type_ position check ""
PanelZone 2 1 $Axis1 $Floor2 $E $mu $fy_column $A_Stiff $I_Stiff 635.00 688.34 25.84 30.99 330.20 2 1 "L";  PanelZone 2 2 $Axis2 $Floor2 $E $mu $fy_column $A_Stiff $I_Stiff 647.70 688.34 52.32 37.08 330.20 2 1 "I";  PanelZone 2 3 $Axis3 $Floor2 $E $mu $fy_column $A_Stiff $I_Stiff 647.70 688.34 52.32 37.08 330.20 2 1 "I";  PanelZone 2 4 $Axis4 $Floor2 $E $mu $fy_column $A_Stiff $I_Stiff 635.00 688.
PanelZone 3 1 $Axis1 $Floor3 $E $mu $fy_column $A_Stiff $I_Stiff 635.00 688.34 25.84 30.99 330.20 2 1 "L";  PanelZone 3 2 $Axis2 $Floor3 $E $mu $fy_column $A_Stiff $I_Stiff 647.70 688.34 52.32 37.08 330.20 2 1 "I";  PanelZone 3 3 $Axis3 $Floor3 $E $mu $fy_column $A_Stiff $I_Stiff 647.70 688.34 52.32 37.08 330.20 2 1 "I";  PanelZone 3 4 $Axis4 $Floor3 $E $mu $fy_column $A_Stiff $I_Stiff 635.00 688.
PanelZone 4 1 $Axis1 $Floor4 $E $mu $fy_column $A_Stiff $I_Stiff 622.30 683.26 24.89 24.38 327.66 2 1 "L";  PanelZone 4 2 $Axis2 $Floor4 $E $mu $fy_column $A_Stiff $I_Stiff 640.08 683.26 47.62 34.04 327.66 2 1 "I";  PanelZone 4 3 $Axis3 $Floor4 $E $mu $fy_column $A_Stiff $I_Stiff 640.08 683.26 47.62 34.04 327.66 2 1 "I";  PanelZone 4 4 $Axis4 $Floor4 $E $mu $fy_column $A_Stiff $I_Stiff 622.30 683.
PanelZone 5 1 $Axis1 $Floor5 $E $mu $fy_column $A_Stiff $I_Stiff 622.30 683.26 24.89 24.38 327.66 2 1 "L";  PanelZone 5 2 $Axis2 $Floor5 $E $mu $fy_column $A_Stiff $I_Stiff 640.08 683.26 47.62 34.04 327.66 2 1 "I";  PanelZone 5 3 $Axis3 $Floor5 $E $mu $fy_column $A_Stiff $I_Stiff 640.08 683.26 47.62 34.04 327.66 2 1 "I";  PanelZone 5 4 $Axis4 $Floor5 $E $mu $fy_column $A_Stiff $I_Stiff 622.30 683.
PanelZone 6 1 $Axis1 $Floor6 $E $mu $fy_column $A_Stiff $I_Stiff 622.30 607.06 20.32 24.89 228.60 2 1 "L";  PanelZone 6 2 $Axis2 $Floor6 $E $mu $fy_column $A_Stiff $I_Stiff 622.30 607.06 40.77 24.38 327.66 2 1 "I";  PanelZone 6 3 $Axis3 $Floor6 $E $mu $fy_column $A_Stiff $I_Stiff 622.30 607.06 40.77 24.38 327.66 2 1 "I";  PanelZone 6 4 $Axis4 $Floor6 $E $mu $fy_column $A_Stiff $I_Stiff 622.30 607.
PanelZone 7 1 $Axis1 $Floor7 $E $mu $fy_column $A_Stiff $I_Stiff 622.30 607.06 20.32 24.89 228.60 2 1 "L";  PanelZone 7 2 $Axis2 $Floor7 $E $mu $fy_column $A_Stiff $I_Stiff 622.30 607.06 40.77 24.38 327.66 2 1 "I";  PanelZone 7 3 $Axis3 $Floor7 $E $mu $fy_column $A_Stiff $I_Stiff 622.30 607.06 40.77 24.38 327.66 2 1 "I";  PanelZone 7 4 $Axis4 $Floor7 $E $mu $fy_column $A_Stiff $I_Stiff 622.30 607.
PanelZone 8 1 $Axis1 $Floor8 $E $mu $fy_column $A_Stiff $I_Stiff 617.22 535.94 19.43 22.23 230.38 2 1 "L";  PanelZone 8 2 $Axis2 $Floor8 $E $mu $fy_column $A_Stiff $I_Stiff 617.22 535.94 36.89 22.23 230.38 2 1 "I";  PanelZone 8 3 $Axis3 $Floor8 $E $mu $fy_column $A_Stiff $I_Stiff 617.22 535.94 36.89 22.23 230.38 2 1 "I";  PanelZone 8 4 $Axis4 $Floor8 $E $mu $fy_column $A_Stiff $I_Stiff 617.22 535.
PanelZone 9 1 $Axis1 $Floor9 $E $mu $fy_column $A_Stiff $I_Stiff 617.22 535.94 19.43 22.23 230.38 2 1 "LT";  PanelZone 9 2 $Axis2 $Floor9 $E $mu $fy_column $A_Stiff $I_Stiff 617.22 535.94 36.89 22.23 230.38 2 1 "T";  PanelZone 9 3 $Axis3 $Floor9 $E $mu $fy_column $A_Stiff $I_Stiff 617.22 535.94 36.89 22.23 230.38 2 1 "T";  PanelZone 9 4 $Axis4 $Floor9 $E $mu $fy_column $A_Stiff $I_Stiff 617.22 535

# RBS elements (If RBS length equal zero, RBS element will not be generated)









# Beam hinges
# BeamHinge SpringID NodeI NodeJ E fy_beam Ix d htw bftf ry L Ls Lb My type_ {check ""}
BeamHinge 10020109 11020104 10020104 $E $fy_beam 1506757760.67 688.34 47.07 6.02 54.67 5458.6 2729.3 2729.3 1724328809.40 2;  BeamHinge 10020210 10020205 11020202 $E $fy_beam 1506757760.67 688.34 47.07 6.02 54.67 5458.6 2729.3 2729.3 1724328809.40 2;  BeamHinge 10020209 11020204 10020204 $E $fy_beam 1506757760.67 688.34 47.07 6.02 54.67 5452.3 2726.2 2726.2 1724328809.40 2;  BeamHinge 10020310 100
BeamHinge 10030109 11030104 10030104 $E $fy_beam 1506757760.67 688.34 47.07 6.02 54.67 5458.6 2729.3 2729.3 1724328809.40 2;  BeamHinge 10030210 10030205 11030202 $E $fy_beam 1506757760.67 688.34 47.07 6.02 54.67 5458.6 2729.3 2729.3 1724328809.40 2;  BeamHinge 10030209 11030204 10030204 $E $fy_beam 1506757760.67 688.34 47.07 6.02 54.67 5452.3 2726.2 2726.2 1724328809.40 2;  BeamHinge 10030310 100
BeamHinge 10040109 11040104 10040104 $E $fy_beam 1361076761.71 683.26 49.43 6.71 53.84 5468.8 2734.4 2734.4 1571683308.24 2;  BeamHinge 10040210 10040205 11040202 $E $fy_beam 1361076761.71 683.26 49.43 6.71 53.84 5468.8 2734.4 2734.4 1571683308.24 2;  BeamHinge 10040209 11040204 10040204 $E $fy_beam 1361076761.71 683.26 49.43 6.71 53.84 5459.9 2730.0 2730.0 1571683308.24 2;  BeamHinge 10040310 100
BeamHinge 10050109 11050104 10050104 $E $fy_beam 1361076761.71 683.26 49.43 6.71 53.84 5468.8 2734.4 2734.4 1571683308.24 2;  BeamHinge 10050210 10050205 11050202 $E $fy_beam 1361076761.71 683.26 49.43 6.71 53.84 5468.8 2734.4 2734.4 1571683308.24 2;  BeamHinge 10050209 11050204 10050204 $E $fy_beam 1361076761.71 683.26 49.43 6.71 53.84 5459.9 2730.0 2730.0 1571683308.24 2;  BeamHinge 10050310 100
BeamHinge 10060109 11060104 10060104 $E $fy_beam 874085993.76 607.06 48.95 6.61 48.75 5477.7 2738.8 2738.8 1130707416.00 2;  BeamHinge 10060210 10060205 11060202 $E $fy_beam 874085993.76 607.06 48.95 6.61 48.75 5477.7 2738.8 2738.8 1130707416.00 2;  BeamHinge 10060209 11060204 10060204 $E $fy_beam 874085993.76 607.06 48.95 6.61 48.75 5477.7 2738.8 2738.8 1130707416.00 2;  BeamHinge 10060310 100603
BeamHinge 10070109 11070104 10070104 $E $fy_beam 874085993.76 607.06 48.95 6.61 48.75 5477.7 2738.8 2738.8 1130707416.00 2;  BeamHinge 10070210 10070205 11070202 $E $fy_beam 874085993.76 607.06 48.95 6.61 48.75 5477.7 2738.8 2738.8 1130707416.00 2;  BeamHinge 10070209 11070204 10070204 $E $fy_beam 874085993.76 607.06 48.95 6.61 48.75 5477.7 2738.8 2738.8 1130707416.00 2;  BeamHinge 10070310 100703
BeamHinge 10080109 11080104 10080104 $E $fy_beam 616022509.89 535.94 43.53 6.04 45.68 5482.8 2741.4 2741.4 904565932.80 2;  BeamHinge 10080210 10080205 11080202 $E $fy_beam 616022509.89 535.94 43.53 6.04 45.68 5482.8 2741.4 2741.4 904565932.80 2;  BeamHinge 10080209 11080204 10080204 $E $fy_beam 616022509.89 535.94 43.53 6.04 45.68 5482.8 2741.4 2741.4 904565932.80 2;  BeamHinge 10080310 10080305 
BeamHinge 10090109 11090104 10090104 $E $fy_beam 616022509.89 535.94 43.53 6.04 45.68 5482.8 2741.4 2741.4 904565932.80 2;  BeamHinge 10090210 10090205 11090202 $E $fy_beam 616022509.89 535.94 43.53 6.04 45.68 5482.8 2741.4 2741.4 904565932.80 2;  BeamHinge 10090209 11090204 10090204 $E $fy_beam 616022509.89 535.94 43.53 6.04 45.68 5482.8 2741.4 2741.4 904565932.80 2;  BeamHinge 10090310 10090305 

# Column hinges
# Column SpringID NodeI NodeJ E Ix d htw ry L Lb My PPy SF_PPy pinned check ""
ColumnHinge 10010107 10010100 10010101 $E 2151916470.35 635.00 30.58 77.33 3855.83 3855.83 2645855353.44 0.1375 1.25 1;  ColumnHinge 10010207 10010200 10010201 $E 2605608724.26 647.70 26.64 77.79 3855.83 3855.83 3160327227.72 0.0775 1.25 1;  ColumnHinge 10010307 10010300 10010301 $E 2605608724.26 647.70 26.64 77.79 3855.83 3855.83 3160327227.72 0.0775 1.25 1;  ColumnHinge 10010407 10010400 1001040
ColumnHinge 10020108 10020102 11020101 $E 2151916470.35 635.00 30.58 77.33 3855.83 3855.83 2645855353.44 0.1375 1.25 1;  ColumnHinge 10020208 10020202 11020201 $E 2605608724.26 647.70 26.64 77.79 3855.83 3855.83 3160327227.72 0.0775 1.25 1;  ColumnHinge 10020308 10020302 11020301 $E 2605608724.26 647.70 26.64 77.79 3855.83 3855.83 3160327227.72 0.0775 1.25 1;  ColumnHinge 10020408 10020402 1102040
ColumnHinge 10020107 11020103 10020101 $E 2151916470.35 635.00 30.58 77.33 3311.66 3311.66 2645855353.44 0.1198 1.25 1;  ColumnHinge 10020207 11020203 10020201 $E 2605608724.26 647.70 26.64 77.79 3311.66 3311.66 3160327227.72 0.0676 1.25 1;  ColumnHinge 10020307 11020303 10020301 $E 2605608724.26 647.70 26.64 77.79 3311.66 3311.66 3160327227.72 0.0676 1.25 1;  ColumnHinge 10020407 11020403 1002040
ColumnHinge 10030108 10030102 11030101 $E 2151916470.35 635.00 30.58 77.33 3311.66 3311.66 2645855353.44 0.1198 1.25 1;  ColumnHinge 10030208 10030202 11030201 $E 2605608724.26 647.70 26.64 77.79 3311.66 3311.66 3160327227.72 0.0676 1.25 1;  ColumnHinge 10030308 10030302 11030301 $E 2605608724.26 647.70 26.64 77.79 3311.66 3311.66 3160327227.72 0.0676 1.25 1;  ColumnHinge 10030408 10030402 1103040
ColumnHinge 10030107 11030103 10030101 $E 2151916470.35 635.00 30.58 77.33 3314.20 3314.20 2645855353.44 0.1023 1.25 1;  ColumnHinge 10030207 11030203 10030201 $E 2605608724.26 647.70 26.64 77.79 3314.20 3314.20 3160327227.72 0.0577 1.25 1;  ColumnHinge 10030307 11030303 10030301 $E 2605608724.26 647.70 26.64 77.79 3314.20 3314.20 3160327227.72 0.0577 1.25 1;  ColumnHinge 10030407 11030403 1003040
ColumnHinge 10040108 10040102 11040101 $E 1673250330.91 622.30 35.67 75.38 3314.20 3314.20 2091808719.60 0.1266 1.25 1;  ColumnHinge 10040208 10040202 11040201 $E 2364194497.41 640.08 28.69 77.31 3314.20 3314.20 2888957447.88 0.0630 1.25 1;  ColumnHinge 10040308 10040302 11040301 $E 2364194497.41 640.08 28.69 77.31 3314.20 3314.20 2888957447.88 0.0630 1.25 1;  ColumnHinge 10040408 10040402 1104040
ColumnHinge 10040107 11040103 10040101 $E 1673250330.91 622.30 35.67 75.38 3316.74 3316.74 2091808719.60 0.1049 1.25 1;  ColumnHinge 10040207 11040203 10040201 $E 2364194497.41 640.08 28.69 77.31 3316.74 3316.74 2888957447.88 0.0522 1.25 1;  ColumnHinge 10040307 11040303 10040301 $E 2364194497.41 640.08 28.69 77.31 3316.74 3316.74 2888957447.88 0.0522 1.25 1;  ColumnHinge 10040407 11040403 1004040
ColumnHinge 10050108 10050102 11050101 $E 1673250330.91 622.30 35.67 75.38 3316.74 3316.74 2091808719.60 0.1049 1.25 1;  ColumnHinge 10050208 10050202 11050201 $E 2364194497.41 640.08 28.69 77.31 3316.74 3316.74 2888957447.88 0.0522 1.25 1;  ColumnHinge 10050308 10050302 11050301 $E 2364194497.41 640.08 28.69 77.31 3316.74 3316.74 2888957447.88 0.0522 1.25 1;  ColumnHinge 10050408 10050402 1105040
ColumnHinge 10050107 11050103 10050101 $E 1673250330.91 622.30 35.67 75.38 3354.84 3354.84 2091808719.60 0.0832 1.25 1;  ColumnHinge 10050207 11050203 10050201 $E 2364194497.41 640.08 28.69 77.31 3354.84 3354.84 2888957447.88 0.0414 1.25 1;  ColumnHinge 10050307 11050303 10050301 $E 2364194497.41 640.08 28.69 77.31 3354.84 3354.84 2888957447.88 0.0414 1.25 1;  ColumnHinge 10050407 11050403 1005040
ColumnHinge 10060108 10060102 11060101 $E 1248694276.80 622.30 39.16 50.34 3354.84 3354.84 1582990382.40 0.1060 1.25 1;  ColumnHinge 10060208 10060202 11060201 $E 1673250330.91 622.30 35.67 75.38 3354.84 3354.84 2091808719.60 0.0555 1.25 1;  ColumnHinge 10060308 10060302 11060301 $E 1673250330.91 622.30 35.67 75.38 3354.84 3354.84 2091808719.60 0.0555 1.25 1;  ColumnHinge 10060408 10060402 1106040
ColumnHinge 10060107 11060103 10060101 $E 1248694276.80 622.30 39.16 50.34 3392.94 3392.94 1582990382.40 0.0783 1.25 1;  ColumnHinge 10060207 11060203 10060201 $E 1673250330.91 622.30 35.67 75.38 3392.94 3392.94 2091808719.60 0.0410 1.25 1;  ColumnHinge 10060307 11060303 10060301 $E 1673250330.91 622.30 35.67 75.38 3392.94 3392.94 2091808719.60 0.0410 1.25 1;  ColumnHinge 10060407 11060403 1006040
ColumnHinge 10070108 10070102 11070101 $E 1248694276.80 622.30 39.16 50.34 3392.94 3392.94 1582990382.40 0.0783 1.25 1;  ColumnHinge 10070208 10070202 11070201 $E 1673250330.91 622.30 35.67 75.38 3392.94 3392.94 2091808719.60 0.0410 1.25 1;  ColumnHinge 10070308 10070302 11070301 $E 1673250330.91 622.30 35.67 75.38 3392.94 3392.94 2091808719.60 0.0410 1.25 1;  ColumnHinge 10070408 10070402 1107040
ColumnHinge 10070107 11070103 10070101 $E 1248694276.80 622.30 39.16 50.34 3428.50 3428.50 1582990382.40 0.0506 1.25 1;  ColumnHinge 10070207 11070203 10070201 $E 1673250330.91 622.30 35.67 75.38 3428.50 3428.50 2091808719.60 0.0265 1.25 1;  ColumnHinge 10070307 11070303 10070301 $E 1673250330.91 622.30 35.67 75.38 3428.50 3428.50 2091808719.60 0.0265 1.25 1;  ColumnHinge 10070407 11070403 1007040
ColumnHinge 10080108 10080102 11080101 $E 1123824849.12 617.22 41.83 50.39 3428.50 3428.50 1435998418.32 0.0554 1.25 1;  ColumnHinge 10080208 10080202 11080201 $E 1123824849.12 617.22 41.83 50.39 3428.50 3428.50 1435998418.32 0.0369 1.25 1;  ColumnHinge 10080308 10080302 11080301 $E 1123824849.12 617.22 41.83 50.39 3428.50 3428.50 1435998418.32 0.0369 1.25 1;  ColumnHinge 10080408 10080402 1108040
ColumnHinge 10080107 11080103 10080101 $E 1123824849.12 617.22 41.83 50.39 3464.06 3464.06 1435998418.32 0.0251 1.25 1;  ColumnHinge 10080207 11080203 10080201 $E 1123824849.12 617.22 41.83 50.39 3464.06 3464.06 1435998418.32 0.0167 1.25 1;  ColumnHinge 10080307 11080303 10080301 $E 1123824849.12 617.22 41.83 50.39 3464.06 3464.06 1435998418.32 0.0167 1.25 1;  ColumnHinge 10080407 11080403 1008040
ColumnHinge 10090108 10090102 11090101 $E 1123824849.12 617.22 41.83 50.39 3464.06 3464.06 1435998418.32 0.0251 1.25 1;  ColumnHinge 10090208 10090202 11090201 $E 1123824849.12 617.22 41.83 50.39 3464.06 3464.06 1435998418.32 0.0167 1.25 1;  ColumnHinge 10090308 10090302 11090301 $E 1123824849.12 617.22 41.83 50.39 3464.06 3464.06 1435998418.32 0.0167 1.25 1;  ColumnHinge 10090408 10090402 1109040

# Rigid links
element truss 10020404 11020404 10020500 $A_Stiff 99;
element truss 10030404 11030404 10030500 $A_Stiff 99;
element truss 10040404 11040404 10040500 $A_Stiff 99;
element truss 10050404 11050404 10050500 $A_Stiff 99;
element truss 10060404 11060404 10060500 $A_Stiff 99;
element truss 10070404 11070404 10070500 $A_Stiff 99;
element truss 10080404 11080404 10080500 $A_Stiff 99;
element truss 10090404 11090404 10090500 $A_Stiff 99;

# Leaning column
element elasticBeamColumn 10010501 10010500 10020502 $A_Stiff $E $I_Stiff 2;
element elasticBeamColumn 10020501 10020501 10030502 $A_Stiff $E $I_Stiff 2;
element elasticBeamColumn 10030501 10030501 10040502 $A_Stiff $E $I_Stiff 2;
element elasticBeamColumn 10040501 10040501 10050502 $A_Stiff $E $I_Stiff 2;
element elasticBeamColumn 10050501 10050501 10060502 $A_Stiff $E $I_Stiff 2;
element elasticBeamColumn 10060501 10060501 10070502 $A_Stiff $E $I_Stiff 2;
element elasticBeamColumn 10070501 10070501 10080502 $A_Stiff $E $I_Stiff 2;
element elasticBeamColumn 10080501 10080501 10090502 $A_Stiff $E $I_Stiff 2;

# Leaning column hinges
Spring_Rigid 10020508 10020502 10020500;
Spring_Zero 10020507 10020500 10020501;
Spring_Rigid 10030508 10030502 10030500;
Spring_Zero 10030507 10030500 10030501;
Spring_Rigid 10040508 10040502 10040500;
Spring_Zero 10040507 10040500 10040501;
Spring_Rigid 10050508 10050502 10050500;
Spring_Zero 10050507 10050500 10050501;
Spring_Rigid 10060508 10060502 10060500;
Spring_Zero 10060507 10060500 10060501;
Spring_Rigid 10070508 10070502 10070500;
Spring_Zero 10070507 10070500 10070501;
Spring_Rigid 10080508 10080502 10080500;
Spring_Zero 10080507 10080500 10080501;
Spring_Rigid 10090508 10090502 10090500;

# --------------------------------- Constraints ----------------------------------

# Support
fix 10010100 1 1 1;
fix 10010200 1 1 1;
fix 10010300 1 1 1;
fix 10010400 1 1 1;
fix 10010500 1 1 0;

# Soil constraint
# (No soil constraint)

# Rigid diaphragm
equalDOF 11020204 11020104 1;  equalDOF 11020204 11020304 1;  equalDOF 11020204 11020404 1;
equalDOF 11030204 11030104 1;  equalDOF 11030204 11030304 1;  equalDOF 11030204 11030404 1;
equalDOF 11040204 11040104 1;  equalDOF 11040204 11040304 1;  equalDOF 11040204 11040404 1;
equalDOF 11050204 11050104 1;  equalDOF 11050204 11050304 1;  equalDOF 11050204 11050404 1;
equalDOF 11060204 11060104 1;  equalDOF 11060204 11060304 1;  equalDOF 11060204 11060404 1;
equalDOF 11070204 11070104 1;  equalDOF 11070204 11070304 1;  equalDOF 11070204 11070404 1;
equalDOF 11080204 11080104 1;  equalDOF 11080204 11080304 1;  equalDOF 11080204 11080404 1;
equalDOF 11090204 11090104 1;  equalDOF 11090204 11090304 1;  equalDOF 11090204 11090404 1;

# ---------------------------------- Recorders -----------------------------------

# Time
recorder Node -file $MainFolder/$SubFolder/Time.out -time -node 10010100 -dof 1 disp;

# Support reactions
recorder Node -file $MainFolder/$SubFolder/Support1.out -node 10010100 -dof 1 2 3 reaction;
recorder Node -file $MainFolder/$SubFolder/Support2.out -node 10010200 -dof 1 2 3 reaction;
recorder Node -file $MainFolder/$SubFolder/Support3.out -node 10010300 -dof 1 2 3 reaction;
recorder Node -file $MainFolder/$SubFolder/Support4.out -node 10010400 -dof 1 2 3 reaction;
recorder Node -file $MainFolder/$SubFolder/Support5.out -node 10010500 -dof 1 2 3 reaction;

# Story drift ratio
recorder Drift -file $MainFolder/$SubFolder/SDR1.out -iNode 10010100 -jNode 11020204 -dof 1 -perpDirn 2;
recorder Drift -file $MainFolder/$SubFolder/SDR2.out -iNode 11020204 -jNode 11030204 -dof 1 -perpDirn 2;
recorder Drift -file $MainFolder/$SubFolder/SDR3.out -iNode 11030204 -jNode 11040204 -dof 1 -perpDirn 2;
recorder Drift -file $MainFolder/$SubFolder/SDR4.out -iNode 11040204 -jNode 11050204 -dof 1 -perpDirn 2;
recorder Drift -file $MainFolder/$SubFolder/SDR5.out -iNode 11050204 -jNode 11060204 -dof 1 -perpDirn 2;
recorder Drift -file $MainFolder/$SubFolder/SDR6.out -iNode 11060204 -jNode 11070204 -dof 1 -perpDirn 2;
recorder Drift -file $MainFolder/$SubFolder/SDR7.out -iNode 11070204 -jNode 11080204 -dof 1 -perpDirn 2;
recorder Drift -file $MainFolder/$SubFolder/SDR8.out -iNode 11080204 -jNode 11090204 -dof 1 -perpDirn 2;
recorder Drift -file $MainFolder/$SubFolder/SDR_Roof.out -iNode 10010100 -jNode 11090204 -dof 1 -perpDirn 2;

# Floor acceleration
recorder Node -file $MainFolder/$SubFolder/RFA1.out -node 10010100 -dof 1 accel;
recorder Node -file $MainFolder/$SubFolder/RFA2.out -node 11020204 -dof 1 accel;
recorder Node -file $MainFolder/$SubFolder/RFA3.out -node 11030204 -dof 1 accel;
recorder Node -file $MainFolder/$SubFolder/RFA4.out -node 11040204 -dof 1 accel;
recorder Node -file $MainFolder/$SubFolder/RFA5.out -node 11050204 -dof 1 accel;
recorder Node -file $MainFolder/$SubFolder/RFA6.out -node 11060204 -dof 1 accel;
recorder Node -file $MainFolder/$SubFolder/RFA7.out -node 11070204 -dof 1 accel;
recorder Node -file $MainFolder/$SubFolder/RFA8.out -node 11080204 -dof 1 accel;
recorder Node -file $MainFolder/$SubFolder/RFA9.out -node 11090204 -dof 1 accel;

# Floor velocity
recorder Node -file $MainFolder/$SubFolder/RFV1.out -node 10010100 -dof 1 vel;
recorder Node -file $MainFolder/$SubFolder/RFV2.out -node 11020204 -dof 1 vel;
recorder Node -file $MainFolder/$SubFolder/RFV3.out -node 11030204 -dof 1 vel;
recorder Node -file $MainFolder/$SubFolder/RFV4.out -node 11040204 -dof 1 vel;
recorder Node -file $MainFolder/$SubFolder/RFV5.out -node 11050204 -dof 1 vel;
recorder Node -file $MainFolder/$SubFolder/RFV6.out -node 11060204 -dof 1 vel;
recorder Node -file $MainFolder/$SubFolder/RFV7.out -node 11070204 -dof 1 vel;
recorder Node -file $MainFolder/$SubFolder/RFV8.out -node 11080204 -dof 1 vel;
recorder Node -file $MainFolder/$SubFolder/RFV9.out -node 11090204 -dof 1 vel;

# Floor displacement
recorder Node -file $MainFolder/$SubFolder/Disp1.out -node 10010100 -dof 1 disp;
recorder Node -file $MainFolder/$SubFolder/Disp2.out -node 11020204 -dof 1 disp;
recorder Node -file $MainFolder/$SubFolder/Disp3.out -node 11030204 -dof 1 disp;
recorder Node -file $MainFolder/$SubFolder/Disp4.out -node 11040204 -dof 1 disp;
recorder Node -file $MainFolder/$SubFolder/Disp5.out -node 11050204 -dof 1 disp;
recorder Node -file $MainFolder/$SubFolder/Disp6.out -node 11060204 -dof 1 disp;
recorder Node -file $MainFolder/$SubFolder/Disp7.out -node 11070204 -dof 1 disp;
recorder Node -file $MainFolder/$SubFolder/Disp8.out -node 11080204 -dof 1 disp;
recorder Node -file $MainFolder/$SubFolder/Disp9.out -node 11090204 -dof 1 disp;

# Shear forces
recorder Element -file $MainFolder/$SubFolder/Shear1_1.out -ele 10010101 force;  recorder Element -file $MainFolder/$SubFolder/Shear1_2.out -ele 10010201 force;  recorder Element -file $MainFolder/$SubFolder/Shear1_3.out -ele 10010301 force;  recorder Element -file $MainFolder/$SubFolder/Shear1_4.out -ele 10010401 force;
recorder Element -file $MainFolder/$SubFolder/Shear2_1.out -ele 10020101 force;  recorder Element -file $MainFolder/$SubFolder/Shear2_2.out -ele 10020201 force;  recorder Element -file $MainFolder/$SubFolder/Shear2_3.out -ele 10020301 force;  recorder Element -file $MainFolder/$SubFolder/Shear2_4.out -ele 10020401 force;
recorder Element -file $MainFolder/$SubFolder/Shear3_1.out -ele 10030102 force;  recorder Element -file $MainFolder/$SubFolder/Shear3_2.out -ele 10030202 force;  recorder Element -file $MainFolder/$SubFolder/Shear3_3.out -ele 10030302 force;  recorder Element -file $MainFolder/$SubFolder/Shear3_4.out -ele 10030402 force;
recorder Element -file $MainFolder/$SubFolder/Shear4_1.out -ele 10040101 force;  recorder Element -file $MainFolder/$SubFolder/Shear4_2.out -ele 10040201 force;  recorder Element -file $MainFolder/$SubFolder/Shear4_3.out -ele 10040301 force;  recorder Element -file $MainFolder/$SubFolder/Shear4_4.out -ele 10040401 force;
recorder Element -file $MainFolder/$SubFolder/Shear5_1.out -ele 10050102 force;  recorder Element -file $MainFolder/$SubFolder/Shear5_2.out -ele 10050202 force;  recorder Element -file $MainFolder/$SubFolder/Shear5_3.out -ele 10050302 force;  recorder Element -file $MainFolder/$SubFolder/Shear5_4.out -ele 10050402 force;
recorder Element -file $MainFolder/$SubFolder/Shear6_1.out -ele 10060101 force;  recorder Element -file $MainFolder/$SubFolder/Shear6_2.out -ele 10060201 force;  recorder Element -file $MainFolder/$SubFolder/Shear6_3.out -ele 10060301 force;  recorder Element -file $MainFolder/$SubFolder/Shear6_4.out -ele 10060401 force;
recorder Element -file $MainFolder/$SubFolder/Shear7_1.out -ele 10070102 force;  recorder Element -file $MainFolder/$SubFolder/Shear7_2.out -ele 10070202 force;  recorder Element -file $MainFolder/$SubFolder/Shear7_3.out -ele 10070302 force;  recorder Element -file $MainFolder/$SubFolder/Shear7_4.out -ele 10070402 force;
recorder Element -file $MainFolder/$SubFolder/Shear8_1.out -ele 10080101 force;  recorder Element -file $MainFolder/$SubFolder/Shear8_2.out -ele 10080201 force;  recorder Element -file $MainFolder/$SubFolder/Shear8_3.out -ele 10080301 force;  recorder Element -file $MainFolder/$SubFolder/Shear8_4.out -ele 10080401 force;

# Column springs
recorder Element -file $MainFolder/$SubFolder/ColSpring1_1T.out -ele 10010107 material 3 stressStrain;  recorder Element -file $MainFolder/$SubFolder/ColSpring1_2T.out -ele 10010207 material 3 stressStrain;  recorder Element -file $MainFolder/$SubFolder/ColSpring1_3T.out -ele 10010307 material 3 stressStrain;  recorder Element -file $MainFolder/$SubFolder/ColSpring1_4T.out -ele 10010407 material 3
recorder Element -file $MainFolder/$SubFolder/ColSpring2_1B.out -ele 10020108 material 3 stressStrain;  recorder Element -file $MainFolder/$SubFolder/ColSpring2_2B.out -ele 10020208 material 3 stressStrain;  recorder Element -file $MainFolder/$SubFolder/ColSpring2_3B.out -ele 10020308 material 3 stressStrain;  recorder Element -file $MainFolder/$SubFolder/ColSpring2_4B.out -ele 10020408 material 3
recorder Element -file $MainFolder/$SubFolder/ColSpring2_1T.out -ele 10020107 material 3 stressStrain;  recorder Element -file $MainFolder/$SubFolder/ColSpring2_2T.out -ele 10020207 material 3 stressStrain;  recorder Element -file $MainFolder/$SubFolder/ColSpring2_3T.out -ele 10020307 material 3 stressStrain;  recorder Element -file $MainFolder/$SubFolder/ColSpring2_4T.out -ele 10020407 material 3
recorder Element -file $MainFolder/$SubFolder/ColSpring3_1B.out -ele 10030108 material 3 stressStrain;  recorder Element -file $MainFolder/$SubFolder/ColSpring3_2B.out -ele 10030208 material 3 stressStrain;  recorder Element -file $MainFolder/$SubFolder/ColSpring3_3B.out -ele 10030308 material 3 stressStrain;  recorder Element -file $MainFolder/$SubFolder/ColSpring3_4B.out -ele 10030408 material 3
recorder Element -file $MainFolder/$SubFolder/ColSpring3_1T.out -ele 10030107 material 3 stressStrain;  recorder Element -file $MainFolder/$SubFolder/ColSpring3_2T.out -ele 10030207 material 3 stressStrain;  recorder Element -file $MainFolder/$SubFolder/ColSpring3_3T.out -ele 10030307 material 3 stressStrain;  recorder Element -file $MainFolder/$SubFolder/ColSpring3_4T.out -ele 10030407 material 3
recorder Element -file $MainFolder/$SubFolder/ColSpring4_1B.out -ele 10040108 material 3 stressStrain;  recorder Element -file $MainFolder/$SubFolder/ColSpring4_2B.out -ele 10040208 material 3 stressStrain;  recorder Element -file $MainFolder/$SubFolder/ColSpring4_3B.out -ele 10040308 material 3 stressStrain;  recorder Element -file $MainFolder/$SubFolder/ColSpring4_4B.out -ele 10040408 material 3
recorder Element -file $MainFolder/$SubFolder/ColSpring4_1T.out -ele 10040107 material 3 stressStrain;  recorder Element -file $MainFolder/$SubFolder/ColSpring4_2T.out -ele 10040207 material 3 stressStrain;  recorder Element -file $MainFolder/$SubFolder/ColSpring4_3T.out -ele 10040307 material 3 stressStrain;  recorder Element -file $MainFolder/$SubFolder/ColSpring4_4T.out -ele 10040407 material 3
recorder Element -file $MainFolder/$SubFolder/ColSpring5_1B.out -ele 10050108 material 3 stressStrain;  recorder Element -file $MainFolder/$SubFolder/ColSpring5_2B.out -ele 10050208 material 3 stressStrain;  recorder Element -file $MainFolder/$SubFolder/ColSpring5_3B.out -ele 10050308 material 3 stressStrain;  recorder Element -file $MainFolder/$SubFolder/ColSpring5_4B.out -ele 10050408 material 3
recorder Element -file $MainFolder/$SubFolder/ColSpring5_1T.out -ele 10050107 material 3 stressStrain;  recorder Element -file $MainFolder/$SubFolder/ColSpring5_2T.out -ele 10050207 material 3 stressStrain;  recorder Element -file $MainFolder/$SubFolder/ColSpring5_3T.out -ele 10050307 material 3 stressStrain;  recorder Element -file $MainFolder/$SubFolder/ColSpring5_4T.out -ele 10050407 material 3
recorder Element -file $MainFolder/$SubFolder/ColSpring6_1B.out -ele 10060108 material 3 stressStrain;  recorder Element -file $MainFolder/$SubFolder/ColSpring6_2B.out -ele 10060208 material 3 stressStrain;  recorder Element -file $MainFolder/$SubFolder/ColSpring6_3B.out -ele 10060308 material 3 stressStrain;  recorder Element -file $MainFolder/$SubFolder/ColSpring6_4B.out -ele 10060408 material 3
recorder Element -file $MainFolder/$SubFolder/ColSpring6_1T.out -ele 10060107 material 3 stressStrain;  recorder Element -file $MainFolder/$SubFolder/ColSpring6_2T.out -ele 10060207 material 3 stressStrain;  recorder Element -file $MainFolder/$SubFolder/ColSpring6_3T.out -ele 10060307 material 3 stressStrain;  recorder Element -file $MainFolder/$SubFolder/ColSpring6_4T.out -ele 10060407 material 3
recorder Element -file $MainFolder/$SubFolder/ColSpring7_1B.out -ele 10070108 material 3 stressStrain;  recorder Element -file $MainFolder/$SubFolder/ColSpring7_2B.out -ele 10070208 material 3 stressStrain;  recorder Element -file $MainFolder/$SubFolder/ColSpring7_3B.out -ele 10070308 material 3 stressStrain;  recorder Element -file $MainFolder/$SubFolder/ColSpring7_4B.out -ele 10070408 material 3
recorder Element -file $MainFolder/$SubFolder/ColSpring7_1T.out -ele 10070107 material 3 stressStrain;  recorder Element -file $MainFolder/$SubFolder/ColSpring7_2T.out -ele 10070207 material 3 stressStrain;  recorder Element -file $MainFolder/$SubFolder/ColSpring7_3T.out -ele 10070307 material 3 stressStrain;  recorder Element -file $MainFolder/$SubFolder/ColSpring7_4T.out -ele 10070407 material 3
recorder Element -file $MainFolder/$SubFolder/ColSpring8_1B.out -ele 10080108 material 3 stressStrain;  recorder Element -file $MainFolder/$SubFolder/ColSpring8_2B.out -ele 10080208 material 3 stressStrain;  recorder Element -file $MainFolder/$SubFolder/ColSpring8_3B.out -ele 10080308 material 3 stressStrain;  recorder Element -file $MainFolder/$SubFolder/ColSpring8_4B.out -ele 10080408 material 3
recorder Element -file $MainFolder/$SubFolder/ColSpring8_1T.out -ele 10080107 material 3 stressStrain;  recorder Element -file $MainFolder/$SubFolder/ColSpring8_2T.out -ele 10080207 material 3 stressStrain;  recorder Element -file $MainFolder/$SubFolder/ColSpring8_3T.out -ele 10080307 material 3 stressStrain;  recorder Element -file $MainFolder/$SubFolder/ColSpring8_4T.out -ele 10080407 material 3
recorder Element -file $MainFolder/$SubFolder/ColSpring9_1B.out -ele 10090108 material 3 stressStrain;  recorder Element -file $MainFolder/$SubFolder/ColSpring9_2B.out -ele 10090208 material 3 stressStrain;  recorder Element -file $MainFolder/$SubFolder/ColSpring9_3B.out -ele 10090308 material 3 stressStrain;  recorder Element -file $MainFolder/$SubFolder/ColSpring9_4B.out -ele 10090408 material 3

# Beam springs
recorder Element -file $MainFolder/$SubFolder/BeamSpring2_1R.out -ele 10020109 material 3 stressStrain;  recorder Element -file $MainFolder/$SubFolder/BeamSpring2_2L.out -ele 10020210 material 3 stressStrain;  recorder Element -file $MainFolder/$SubFolder/BeamSpring2_2R.out -ele 10020209 material 3 stressStrain;  recorder Element -file $MainFolder/$SubFolder/BeamSpring2_3L.out -ele 10020310 materi
recorder Element -file $MainFolder/$SubFolder/BeamSpring3_1R.out -ele 10030109 material 3 stressStrain;  recorder Element -file $MainFolder/$SubFolder/BeamSpring3_2L.out -ele 10030210 material 3 stressStrain;  recorder Element -file $MainFolder/$SubFolder/BeamSpring3_2R.out -ele 10030209 material 3 stressStrain;  recorder Element -file $MainFolder/$SubFolder/BeamSpring3_3L.out -ele 10030310 materi
recorder Element -file $MainFolder/$SubFolder/BeamSpring4_1R.out -ele 10040109 material 3 stressStrain;  recorder Element -file $MainFolder/$SubFolder/BeamSpring4_2L.out -ele 10040210 material 3 stressStrain;  recorder Element -file $MainFolder/$SubFolder/BeamSpring4_2R.out -ele 10040209 material 3 stressStrain;  recorder Element -file $MainFolder/$SubFolder/BeamSpring4_3L.out -ele 10040310 materi
recorder Element -file $MainFolder/$SubFolder/BeamSpring5_1R.out -ele 10050109 material 3 stressStrain;  recorder Element -file $MainFolder/$SubFolder/BeamSpring5_2L.out -ele 10050210 material 3 stressStrain;  recorder Element -file $MainFolder/$SubFolder/BeamSpring5_2R.out -ele 10050209 material 3 stressStrain;  recorder Element -file $MainFolder/$SubFolder/BeamSpring5_3L.out -ele 10050310 materi
recorder Element -file $MainFolder/$SubFolder/BeamSpring6_1R.out -ele 10060109 material 3 stressStrain;  recorder Element -file $MainFolder/$SubFolder/BeamSpring6_2L.out -ele 10060210 material 3 stressStrain;  recorder Element -file $MainFolder/$SubFolder/BeamSpring6_2R.out -ele 10060209 material 3 stressStrain;  recorder Element -file $MainFolder/$SubFolder/BeamSpring6_3L.out -ele 10060310 materi
recorder Element -file $MainFolder/$SubFolder/BeamSpring7_1R.out -ele 10070109 material 3 stressStrain;  recorder Element -file $MainFolder/$SubFolder/BeamSpring7_2L.out -ele 10070210 material 3 stressStrain;  recorder Element -file $MainFolder/$SubFolder/BeamSpring7_2R.out -ele 10070209 material 3 stressStrain;  recorder Element -file $MainFolder/$SubFolder/BeamSpring7_3L.out -ele 10070310 materi
recorder Element -file $MainFolder/$SubFolder/BeamSpring8_1R.out -ele 10080109 material 3 stressStrain;  recorder Element -file $MainFolder/$SubFolder/BeamSpring8_2L.out -ele 10080210 material 3 stressStrain;  recorder Element -file $MainFolder/$SubFolder/BeamSpring8_2R.out -ele 10080209 material 3 stressStrain;  recorder Element -file $MainFolder/$SubFolder/BeamSpring8_3L.out -ele 10080310 materi
recorder Element -file $MainFolder/$SubFolder/BeamSpring9_1R.out -ele 10090109 material 3 stressStrain;  recorder Element -file $MainFolder/$SubFolder/BeamSpring9_2L.out -ele 10090210 material 3 stressStrain;  recorder Element -file $MainFolder/$SubFolder/BeamSpring9_2R.out -ele 10090209 material 3 stressStrain;  recorder Element -file $MainFolder/$SubFolder/BeamSpring9_3L.out -ele 10090310 materi

# Panel zone springs (if any)
recorder Element -file $MainFolder/$SubFolder/PZ2_1.out -ele 11020100 material 1 stressStrain;  recorder Element -file $MainFolder/$SubFolder/PZ2_2.out -ele 11020200 material 1 stressStrain;  recorder Element -file $MainFolder/$SubFolder/PZ2_3.out -ele 11020300 material 1 stressStrain;  recorder Element -file $MainFolder/$SubFolder/PZ2_4.out -ele 11020400 material 1 stressStrain;
recorder Element -file $MainFolder/$SubFolder/PZ3_1.out -ele 11030100 material 1 stressStrain;  recorder Element -file $MainFolder/$SubFolder/PZ3_2.out -ele 11030200 material 1 stressStrain;  recorder Element -file $MainFolder/$SubFolder/PZ3_3.out -ele 11030300 material 1 stressStrain;  recorder Element -file $MainFolder/$SubFolder/PZ3_4.out -ele 11030400 material 1 stressStrain;
recorder Element -file $MainFolder/$SubFolder/PZ4_1.out -ele 11040100 material 1 stressStrain;  recorder Element -file $MainFolder/$SubFolder/PZ4_2.out -ele 11040200 material 1 stressStrain;  recorder Element -file $MainFolder/$SubFolder/PZ4_3.out -ele 11040300 material 1 stressStrain;  recorder Element -file $MainFolder/$SubFolder/PZ4_4.out -ele 11040400 material 1 stressStrain;
recorder Element -file $MainFolder/$SubFolder/PZ5_1.out -ele 11050100 material 1 stressStrain;  recorder Element -file $MainFolder/$SubFolder/PZ5_2.out -ele 11050200 material 1 stressStrain;  recorder Element -file $MainFolder/$SubFolder/PZ5_3.out -ele 11050300 material 1 stressStrain;  recorder Element -file $MainFolder/$SubFolder/PZ5_4.out -ele 11050400 material 1 stressStrain;
recorder Element -file $MainFolder/$SubFolder/PZ6_1.out -ele 11060100 material 1 stressStrain;  recorder Element -file $MainFolder/$SubFolder/PZ6_2.out -ele 11060200 material 1 stressStrain;  recorder Element -file $MainFolder/$SubFolder/PZ6_3.out -ele 11060300 material 1 stressStrain;  recorder Element -file $MainFolder/$SubFolder/PZ6_4.out -ele 11060400 material 1 stressStrain;
recorder Element -file $MainFolder/$SubFolder/PZ7_1.out -ele 11070100 material 1 stressStrain;  recorder Element -file $MainFolder/$SubFolder/PZ7_2.out -ele 11070200 material 1 stressStrain;  recorder Element -file $MainFolder/$SubFolder/PZ7_3.out -ele 11070300 material 1 stressStrain;  recorder Element -file $MainFolder/$SubFolder/PZ7_4.out -ele 11070400 material 1 stressStrain;
recorder Element -file $MainFolder/$SubFolder/PZ8_1.out -ele 11080100 material 1 stressStrain;  recorder Element -file $MainFolder/$SubFolder/PZ8_2.out -ele 11080200 material 1 stressStrain;  recorder Element -file $MainFolder/$SubFolder/PZ8_3.out -ele 11080300 material 1 stressStrain;  recorder Element -file $MainFolder/$SubFolder/PZ8_4.out -ele 11080400 material 1 stressStrain;
recorder Element -file $MainFolder/$SubFolder/PZ9_1.out -ele 11090100 material 1 stressStrain;  recorder Element -file $MainFolder/$SubFolder/PZ9_2.out -ele 11090200 material 1 stressStrain;  recorder Element -file $MainFolder/$SubFolder/PZ9_3.out -ele 11090300 material 1 stressStrain;  recorder Element -file $MainFolder/$SubFolder/PZ9_4.out -ele 11090400 material 1 stressStrain;

# MPCO recorder
if {$MPCO == 1} {
    recorder mpco $MainFolder$SubFolder/result.mpco -N displacement acceleration modesOfVibration -E material.stress material.strain;
}

# ------------------------------------- Mass -------------------------------------

# Moment frame mass
set g 9810.0;
mass 11020104 16.839 1.e-9 1.e-9;  mass 11020204 11.226 1.e-9 1.e-9;  mass 11020304 11.226 1.e-9 1.e-9;  mass 11020404 16.839 1.e-9 1.e-9;
mass 11030104 16.727 1.e-9 1.e-9;  mass 11030204 11.151 1.e-9 1.e-9;  mass 11030304 11.151 1.e-9 1.e-9;  mass 11030404 16.727 1.e-9 1.e-9;
mass 11040104 16.727 1.e-9 1.e-9;  mass 11040204 11.151 1.e-9 1.e-9;  mass 11040304 11.151 1.e-9 1.e-9;  mass 11040404 16.727 1.e-9 1.e-9;
mass 11050104 16.727 1.e-9 1.e-9;  mass 11050204 11.151 1.e-9 1.e-9;  mass 11050304 11.151 1.e-9 1.e-9;  mass 11050404 16.727 1.e-9 1.e-9;
mass 11060104 16.727 1.e-9 1.e-9;  mass 11060204 11.151 1.e-9 1.e-9;  mass 11060304 11.151 1.e-9 1.e-9;  mass 11060404 16.727 1.e-9 1.e-9;
mass 11070104 16.727 1.e-9 1.e-9;  mass 11070204 11.151 1.e-9 1.e-9;  mass 11070304 11.151 1.e-9 1.e-9;  mass 11070404 16.727 1.e-9 1.e-9;
mass 11080104 16.727 1.e-9 1.e-9;  mass 11080204 11.151 1.e-9 1.e-9;  mass 11080304 11.151 1.e-9 1.e-9;  mass 11080404 16.727 1.e-9 1.e-9;
mass 11090104 14.486 1.e-9 1.e-9;  mass 11090204 9.657 1.e-9 1.e-9;  mass 11090304 9.657 1.e-9 1.e-9;  mass 11090404 14.486 1.e-9 1.e-9;

# Leaning column mass
mass 10020500 266.340 1.e-9 1.e-9;
mass 10030500 265.817 1.e-9 1.e-9;
mass 10040500 265.817 1.e-9 1.e-9;
mass 10050500 265.817 1.e-9 1.e-9;
mass 10060500 265.817 1.e-9 1.e-9;
mass 10070500 265.817 1.e-9 1.e-9;
mass 10080500 265.817 1.e-9 1.e-9;
mass 10090500 255.360 1.e-9 1.e-9;


# -------------------------------- Eigen analysis --------------------------------

set pi [expr 2.0*asin(1.0)];
set nEigen 8
set lambdaN [eigen [expr $nEigen]];
set lambda1 [lindex $lambdaN 0];
set lambda2 [lindex $lambdaN 1];
set lambda3 [lindex $lambdaN 2];
set lambda4 [lindex $lambdaN 3];
set lambda5 [lindex $lambdaN 4];
set lambda6 [lindex $lambdaN 5];
set lambda7 [lindex $lambdaN 6];
set lambda8 [lindex $lambdaN 7];
set w1 [expr pow($lambda1, 0.5)];
set w2 [expr pow($lambda2, 0.5)];
set w3 [expr pow($lambda3, 0.5)];
set w4 [expr pow($lambda4, 0.5)];
set w5 [expr pow($lambda5, 0.5)];
set w6 [expr pow($lambda6, 0.5)];
set w7 [expr pow($lambda7, 0.5)];
set w8 [expr pow($lambda8, 0.5)];
set T1 [expr round(2.0*$pi/$w1 *1000.)/1000.];
set T2 [expr round(2.0*$pi/$w2 *1000.)/1000.];
set T3 [expr round(2.0*$pi/$w3 *1000.)/1000.];
set T4 [expr round(2.0*$pi/$w4 *1000.)/1000.];
set T5 [expr round(2.0*$pi/$w5 *1000.)/1000.];
set T6 [expr round(2.0*$pi/$w6 *1000.)/1000.];
set T7 [expr round(2.0*$pi/$w7 *1000.)/1000.];
set T8 [expr round(2.0*$pi/$w8 *1000.)/1000.];
puts "T1 = $T1 s";
puts "T2 = $T2 s";
puts "T3 = $T3 s";

set mode [list]
for {set i 1} {$i <= $NStory} {incr i} {
    lappend mode [expr [nodeEigenvector 11020204 $i 1]]
    lappend mode [expr [nodeEigenvector 11030204 $i 1]]
    lappend mode [expr [nodeEigenvector 11040204 $i 1]]
    lappend mode [expr [nodeEigenvector 11050204 $i 1]]
    lappend mode [expr [nodeEigenvector 11060204 $i 1]]
    lappend mode [expr [nodeEigenvector 11070204 $i 1]]
    lappend mode [expr [nodeEigenvector 11080204 $i 1]]
    lappend mode [expr [nodeEigenvector 11090204 $i 1]]
    set file_mode [open "$MainFolder/$SubFolder/mode$i.out" w]
    foreach val $mode {puts $file_mode $val}
    close $file_mode
    if {$i == 1} {set mode_list $mode}
    set mode [list]
};

set file_T [open "$MainFolder/$SubFolder/Period.out" w];
puts $file_T $T1;
puts $file_T $T2;
puts $file_T $T3;
puts $file_T $T4;
puts $file_T $T5;
puts $file_T $T6;
puts $file_T $T7;
puts $file_T $T8;
close $file_T;


# --------------------------- Static gravity analysis ----------------------------

pattern Plain 100 Linear {

    # Moment frame loads
    load 11020101 0. -187765.9 0.;      load 11020201 0. -125177.6 0.;      load 11020301 0. -125177.6 0.;      load 11020401 0. -187765.9 0.;
    load 11030101 0. -186667.9 0.;      load 11030201 0. -124445.6 0.;      load 11030301 0. -124445.6 0.;      load 11030401 0. -186667.9 0.;
    load 11040101 0. -186667.9 0.;      load 11040201 0. -124445.6 0.;      load 11040301 0. -124445.6 0.;      load 11040401 0. -186667.9 0.;
    load 11050101 0. -186667.9 0.;      load 11050201 0. -124445.6 0.;      load 11050301 0. -124445.6 0.;      load 11050401 0. -186667.9 0.;
    load 11060101 0. -186667.9 0.;      load 11060201 0. -124445.6 0.;      load 11060301 0. -124445.6 0.;      load 11060401 0. -186667.9 0.;
    load 11070101 0. -186667.9 0.;      load 11070201 0. -124445.6 0.;      load 11070301 0. -124445.6 0.;      load 11070401 0. -186667.9 0.;
    load 11080101 0. -186667.9 0.;      load 11080201 0. -124445.6 0.;      load 11080301 0. -124445.6 0.;      load 11080401 0. -186667.9 0.;
    load 11090101 0. -154661.2 0.;      load 11090201 0. -103107.8 0.;      load 11090301 0. -103107.8 0.;      load 11090401 0. -154661.2 0.;

    # gravity frame loads
    load 10020500 0. -3075525.5 0.;
    load 10030500 0. -3070145.2 0.;
    load 10040500 0. -3070145.2 0.;
    load 10050500 0. -3070145.2 0.;
    load 10060500 0. -3070145.2 0.;
    load 10070500 0. -3070145.2 0.;
    load 10080500 0. -3070145.2 0.;
    load 10090500 0. -2761607.2 0.;

}

wipeAnalysis
constraints Plain;
numberer RCM;
system BandGeneral;
test NormDispIncr 1.0e-5 60;
algorithm Newton;
integrator LoadControl 0.1;
analysis Static;
analyze 10;
loadConst -time 0.0;


# ---------------------------- Time history analysis -----------------------------

if {$ShowAnimation == 1} {DisplayModel3D DeformedShape 5.00 100 100 1600 1000};
set MF_FloorNodes [list 11020204 11030204 11040204 11050204 11060204 11070204 11080204 11090204];

if {$analysis_type == "TH"} {

    # Rayleigh damping
    set zeta 0.02;
    set a0 [expr $zeta*2.0*$w1*$w3/($w1 + $w3)];
    set a1 [expr $zeta*2.0/($w1 + $w3)];
    set a1_mod [expr $a1*(1.0+$n)/$n];
    set beam_Ids [list 10020104 10020211 10020212 10020304 10030104 10030211 10030212 10030304 10040104 10040211 10040212 10040304 10050104 10050211 10050212 10050304 10060104 10060211 10060212 10060304 10070104 10070211 10070212 10070304 10080104 10080211 10080212 10080304 10090104 10090211 10090212 10090304];
    set column_Ids [list 10010101 10010201 10010301 10010401 10020101 10020201 10020301 10020401 10030102 10030103 10030202 10030203 10030302 10030303 10030402 10030403 10040101 10040201 10040301 10040401 10050102 10050103 10050202 10050203 10050302 10050303 10050402 10050403 10060101 10060201 10060301 10060401 10070102 10070103 10070202 10070203 10070302 10070303 10070402 10070403 10080101 100802
    set mass_Ids [list 11020104 11020204 11020304 11020404 11020504 11020604 11020704 11020804 11030104 11030204 11030304 11030404 11030504 11030604 11030704 11030804 11040104 11040204 11040304 11040404 11040504 11040604 11040704 11040804 11050104 11050204 11050304 11050404 11050504 11050604 11050704 11050804 11060104 11060204 11060304 11060404 11060504 11060604 11060704 11060804 11070104 11070204
    # region 1 -ele {*}$beam_Ids -rayleigh 0.0 0.0 $a1_mod 0.0;
    # region 2 -ele {*}$column_Ids -rayleigh 0.0 0.0 $a1_mod 0.0;
    # region 3 -ele {*}$mass_Ids -rayleigh $a0 0.0 0.0 0.0;
    rayleigh $a0 0.0 $a1 0.0;

    # Ground motion acceleration file input
    timeSeries Path 200 -dt $GMdt -filePath $GMFile -factor [expr $EqSF * $g];
    recorder Node -file $MainFolder/$SubFolder/groundmotion.out -timeSeries 200 -node 10010100 -dof 1 accel;
    pattern UniformExcitation 200 1 -accel 200;
    set totalTime [expr $GMduration + $FVduration];
    set CollapseDrift 0.1;  # $$$
    set MaxAnalysisDrift 0.5;
    set result [TimeHistorySolver $GMdt $totalTime $story_heights $MF_FloorNodes $CollapseDrift $MaxAnalysisDrift $GMname $maxRunTime $temp];
    set status [lindex $result 0];
    set controlled_time [lindex $result 1];
    puts "Running status: $status";
    puts "Controlled time: $controlled_time";

# ------------------------------ Pushover analysis -------------------------------

} elseif {$analysis_type == "PO"} {

    set m2 322.469;
    set m3 321.573;
    set m4 321.573;
    set m5 321.573;
    set m6 321.573;
    set m7 321.573;
    set m8 321.573;
    set m9 303.647;

    set F2 [expr $m2 * [lindex $mode_list 0]];
    set F3 [expr $m3 * [lindex $mode_list 1]];
    set F4 [expr $m4 * [lindex $mode_list 2]];
    set F5 [expr $m5 * [lindex $mode_list 3]];
    set F6 [expr $m6 * [lindex $mode_list 4]];
    set F7 [expr $m7 * [lindex $mode_list 5]];
    set F8 [expr $m8 * [lindex $mode_list 6]];
    set F9 [expr $m9 * [lindex $mode_list 7]];
    pattern Plain 222 Linear {
        load 11020204 $F2 0.0 0.0;
        load 11030204 $F3 0.0 0.0;
        load 11040204 $F4 0.0 0.0;
        load 11050204 $F5 0.0 0.0;
        load 11060204 $F6 0.0 0.0;
        load 11070204 $F7 0.0 0.0;
        load 11080204 $F8 0.0 0.0;
        load 11090204 $F9 0.0 0.0;
    };
    set CtrlNode 11090204;
    set maxRoofDrift 0.1;  # $$$
    set Dmax [expr $maxRoofDrift * $Floor9];
    set Dincr 0.5;
    set result [PushoverAnalysis $CtrlNode $Dmax $Dincr $maxRunTime];
    set status [lindex $result 0];
    set roofDisp [lindex $result 1];
    puts "Running status: $status";
    puts "Roof displacement: $roofDisp";
    puts "Roof drift ratio: [expr $roofDisp / $HBuilding]";

# ------------------------------- Cyclic pushover --------------------------------

} elseif {$analysis_type == "CP"} {

    set RDR_path [list 0 0.02 -0.02 0];  # $$$

    set m2 322.469;
    set m3 321.573;
    set m4 321.573;
    set m5 321.573;
    set m6 321.573;
    set m7 321.573;
    set m8 321.573;
    set m9 303.647;

    set F2 [expr $m2 * [lindex $mode_list 0]];
    set F3 [expr $m3 * [lindex $mode_list 1]];
    set F4 [expr $m4 * [lindex $mode_list 2]];
    set F5 [expr $m5 * [lindex $mode_list 3]];
    set F6 [expr $m6 * [lindex $mode_list 4]];
    set F7 [expr $m7 * [lindex $mode_list 5]];
    set F8 [expr $m8 * [lindex $mode_list 6]];
    set F9 [expr $m9 * [lindex $mode_list 7]];
    pattern Plain 222 Linear {
        load 11020204 $F2 0.0 0.0;
        load 11030204 $F3 0.0 0.0;
        load 11040204 $F4 0.0 0.0;
        load 11050204 $F5 0.0 0.0;
        load 11060204 $F6 0.0 0.0;
        load 11070204 $F7 0.0 0.0;
        load 11080204 $F8 0.0 0.0;
        load 11090204 $F9 0.0 0.0;
    };
    set CtrlNode 11090204;
    set Dincr 0.5;
    CyclicPushover $CtrlNode $RDR_path $HBuilding $Dincr $maxRunTime;

}

wipe all;


# ----------------------------- Building information -----------------------------
#
# Moment resisting frame model information
# Frame name: MRF8S
# Generation time: 2024-10-13 12:11:59.983768
# All units are in [N, mm, t]
# 
# 
# --------------- 1. Building Geometry ---------------
# 
# Building height: 32200
# Number of story: 8
# Number of bays: 3
# Plane dimensions [mm]: 42700 x 30500
# Number of moment frames: 2
# External column tributary area [mm]: 9150 x 3050
# Internal column tributary area [mm]: 6100 x 3050
# 
# 
# --------------- 2. Structural Components ---------------
# 
# Beam sections:
#  Floor   Bay-1   Bay-2   Bay-3
#      2 W27x102 W27x102 W27x102
#      3 W27x102 W27x102 W27x102
#      4  W27x94  W27x94  W27x94
#      5  W27x94  W27x94  W27x94
#      6  W24x76  W24x76  W24x76
#      7  W24x76  W24x76  W24x76
#      8  W21x68  W21x68  W21x68
#      9  W21x68  W21x68  W21x68
# 
# Column sections:
#  Story  Axis-1  Axis-2  Axis-3  Axis-4
#      1 W24x162 W24x192 W24x192 W24x162
#      2 W24x162 W24x192 W24x192 W24x162
#      3 W24x162 W24x192 W24x192 W24x162
#      4 W24x131 W24x176 W24x176 W24x131
#      5 W24x131 W24x176 W24x176 W24x131
#      6 W24x103 W24x131 W24x131 W24x103
#      7 W24x103 W24x131 W24x131 W24x103
#      8  W24x94  W24x94  W24x94  W24x94
# 
# Stories with column splices: 3, 5, 7
# 
# Doubler plate thickness [mm]:
#  Floor  Axis-1  Axis-2  Axis-3  Axis-4
#      2  7.9375 31.7500 31.7500  7.9375
#      3  7.9375 31.7500 31.7500  7.9375
#      4  9.5250 28.5750 28.5750  9.5250
#      5  9.5250 28.5750 28.5750  9.5250
#      6  6.3500 25.4000 25.4000  6.3500
#      7  6.3500 25.4000 25.4000  6.3500
#      8  6.3500 23.8125 23.8125  6.3500
#      9  6.3500 23.8125 23.8125  6.3500
# 
# 
# --------------- 3. Load and Material ---------------
# 
# Material properties:
# 	Young's modulus [MPa]: 206000
# 	Nominal yield strength of beams [MPa]: 345
# 	Nominal yield strength of columns [MPa]: 345
# 	Possion ratio: 0.3
# 
# Load [MPa]:
# Story/Floor   Dead    Live  Cladding
#         1/2 0.0043 0.00240    0.0012
#         2/3 0.0043 0.00240    0.0012
#         3/4 0.0043 0.00240    0.0012
#         4/5 0.0043 0.00240    0.0012
#         5/6 0.0043 0.00240    0.0012
#         6/7 0.0043 0.00240    0.0012
#         7/8 0.0043 0.00240    0.0012
#         8/9 0.0043 0.00096    0.0012
# 
# Load and mass combination coefficients:
#         Dead  Live  Cladding
# Weight  1.05  0.25      1.05
# Mass    1.00  0.00      1.00
# 
# Axial compressive ratio of columns:
# Story   Axis-1   Axis-2   Axis-3   Axis-4
#    1b 0.137455 0.077527 0.077527 0.137455
#    1t 0.137455 0.077527 0.077527 0.137455
#    2b 0.119807 0.067573 0.067573 0.119807
#    2t 0.119807 0.067573 0.067573 0.119807
#    3b 0.102262 0.057677 0.057677 0.102262
#    3t 0.126635 0.063032 0.063032 0.126635
#    4b 0.104909 0.052218 0.052218 0.104909
#    4t 0.104909 0.052218 0.052218 0.104909
#    5b 0.083182 0.041403 0.041403 0.083182
#    5t 0.105968 0.055455 0.055455 0.105968
#    6b 0.078289 0.040970 0.040970 0.078289
#    6t 0.078289 0.040970 0.040970 0.078289
#    7b 0.050611 0.026486 0.026486 0.050611
#    7t 0.055361 0.036908 0.036908 0.055361
#    8b 0.025085 0.016723 0.016723 0.025085
#    8t 0.025085 0.016723 0.016723 0.025085
# 
# Seiemic weight of considered 2D frame: 29132.79 kN
# Seiemic mass of considered 2D frame: 2555.55 t
# 
# 
# --------------- 4. Connection and Boundary Condition ---------------
# 
# Base support: Fixed
# Beam-to-column connection: Fully constrained connection
# Consider panel zone deformation: Yes (Parallelogram)
# 

